
     RDKit          3D

126147  0  0  1  0  0  0  0  0999 V2000
    2.6878    3.7306   -1.3729 N   0  0  0  0  0  0  0  0  0  0  0  0
    2.8985    4.5049   -0.1733 C   0  0  1  0  0  0  0  0  0  0  0  0
    1.5393    5.2475    0.0109 C   0  0  1  0  0  0  0  0  0  0  0  0
    0.8498    4.9859   -1.2199 N   0  0  0  0  0  0  0  0  0  0  0  0
    1.5323    4.1058   -2.0448 C   0  0  0  0  0  0  0  0  0  0  0  0
    3.0447    3.7760    1.0525 N   0  0  0  0  0  0  0  0  0  0  0  0
    1.9276    3.8593    1.8680 C   0  0  0  0  0  0  0  0  0  0  0  0
    0.9956    4.6432    1.2028 N   0  0  0  0  0  0  0  0  0  0  0  0
    1.2112    3.7778   -3.1625 O   0  0  0  0  0  0  0  0  0  0  0  0
    1.8137    3.3893    2.9755 O   0  0  0  0  0  0  0  0  0  0  0  0
   -1.5747    5.1180   -1.0646 N   0  0  0  0  0  0  0  0  0  0  0  0
   -2.0549    5.4355    0.2507 C   0  0  1  0  0  0  0  0  0  0  0  0
   -3.5017    4.8505    0.2598 C   0  0  1  0  0  0  0  0  0  0  0  0
   -3.5795    4.1411   -0.9928 N   0  0  0  0  0  0  0  0  0  0  0  0
   -2.4890    4.3944   -1.8150 C   0  0  0  0  0  0  0  0  0  0  0  0
   -1.4183    4.7621    1.3545 N   0  0  0  0  0  0  0  0  0  0  0  0
   -2.3132    4.0231    2.1146 C   0  0  0  0  0  0  0  0  0  0  0  0
   -3.5309    4.0594    1.4554 N   0  0  0  0  0  0  0  0  0  0  0  0
   -2.3824    4.0973   -2.9802 O   0  0  0  0  0  0  0  0  0  0  0  0
   -2.0901    3.4990    3.1798 O   0  0  0  0  0  0  0  0  0  0  0  0
    3.7915   -2.7579   -1.4555 N   0  0  0  0  0  0  0  0  0  0  0  0
    4.2838   -3.4525   -0.2886 C   0  0  2  0  0  0  0  0  0  0  0  0
    3.2564   -4.6119   -0.1124 C   0  0  2  0  0  0  0  0  0  0  0  0
    2.5016   -4.5736   -1.3307 N   0  0  0  0  0  0  0  0  0  0  0  0
    2.8201   -3.4860   -2.1289 C   0  0  0  0  0  0  0  0  0  0  0  0
    4.2102   -2.7532    0.9608 N   0  0  0  0  0  0  0  0  0  0  0  0
    3.1985   -3.2222    1.7836 C   0  0  0  0  0  0  0  0  0  0  0  0
    2.5592   -4.2468    1.0987 N   0  0  0  0  0  0  0  0  0  0  0  0
    2.3787   -3.2524   -3.2281 O   0  0  0  0  0  0  0  0  0  0  0  0
    2.9597   -2.8497    2.9075 O   0  0  0  0  0  0  0  0  0  0  0  0
   -4.1118   -4.1455   -1.0805 N   0  0  0  0  0  0  0  0  0  0  0  0
   -4.8025   -4.1678    0.1757 C   0  0  2  0  0  0  0  0  0  0  0  0
   -5.7055   -2.8982    0.1110 C   0  0  2  0  0  0  0  0  0  0  0  0
   -5.2187   -2.2098   -1.0598 N   0  0  0  0  0  0  0  0  0  0  0  0
   -4.3579   -2.9949   -1.8134 C   0  0  0  0  0  0  0  0  0  0  0  0
   -4.0103   -3.9453    1.3615 N   0  0  0  0  0  0  0  0  0  0  0  0
   -4.4926   -2.8897    2.1252 C   0  0  0  0  0  0  0  0  0  0  0  0
   -5.4763   -2.2635    1.3764 N   0  0  0  0  0  0  0  0  0  0  0  0
   -3.9497   -2.7538   -2.9237 O   0  0  0  0  0  0  0  0  0  0  0  0
   -4.1630   -2.6084    3.2518 O   0  0  0  0  0  0  0  0  0  0  0  0
   -5.2428    2.3728   -1.0539 N   0  0  0  0  0  0  0  0  0  0  0  0
   -5.9162    2.1563    0.1928 C   0  0  1  0  0  0  0  0  0  0  0  0
   -6.3314    0.6541    0.1214 C   0  0  1  0  0  0  0  0  0  0  0  0
   -5.6319    0.1759   -1.0464 N   0  0  0  0  0  0  0  0  0  0  0  0
   -5.0776    1.2096   -1.7892 C   0  0  0  0  0  0  0  0  0  0  0  0
   -5.1116    2.2186    1.3903 N   0  0  0  0  0  0  0  0  0  0  0  0
   -5.2089    1.0583    2.1485 C   0  0  0  0  0  0  0  0  0  0  0  0
   -5.9075    0.1335    1.3890 N   0  0  0  0  0  0  0  0  0  0  0  0
   -4.5976    1.1245   -2.8941 O   0  0  0  0  0  0  0  0  0  0  0  0
   -4.8164    0.9051    3.2801 O   0  0  0  0  0  0  0  0  0  0  0  0
    1.5590   -5.5729   -1.7505 C   0  0  0  0  0  0  0  0  0  0  0  0
   -0.1490    5.1623    1.9007 C   0  0  0  0  0  0  0  0  0  0  0  0
    1.6691   -5.1388    1.7946 C   0  0  0  0  0  0  0  0  0  0  0  0
   -0.3622    5.6334   -1.6391 C   0  0  0  0  0  0  0  0  0  0  0  0
    4.1083    1.7745   -1.5576 N   0  0  0  0  0  0  0  0  0  0  0  0
    4.9806    1.5642   -0.4360 C   0  0  2  0  0  0  0  0  0  0  0  0
    5.2466    0.0261   -0.4659 C   0  0  2  0  0  0  0  0  0  0  0  0
    4.4475   -0.4291   -1.5727 N   0  0  0  0  0  0  0  0  0  0  0  0
    3.8325    0.6090   -2.2562 C   0  0  0  0  0  0  0  0  0  0  0  0
    4.4185    1.7794    0.8717 N   0  0  0  0  0  0  0  0  0  0  0  0
    4.4239    0.6340    1.6544 C   0  0  0  0  0  0  0  0  0  0  0  0
    4.8447   -0.4090    0.8444 N   0  0  0  0  0  0  0  0  0  0  0  0
    3.2243    0.5240   -3.2954 O   0  0  0  0  0  0  0  0  0  0  0  0
    4.1703    0.5694    2.8326 O   0  0  0  0  0  0  0  0  0  0  0  0
    3.7509    3.0635   -2.0782 C   0  0  0  0  0  0  0  0  0  0  0  0
    4.2323    3.0786    1.4607 C   0  0  0  0  0  0  0  0  0  0  0  0
    5.1097   -1.7154    1.3819 C   0  0  0  0  0  0  0  0  0  0  0  0
    4.5429   -1.7421   -2.1453 C   0  0  0  0  0  0  0  0  0  0  0  0
   -4.8129    3.6493   -1.5497 C   0  0  0  0  0  0  0  0  0  0  0  0
   -4.7095    3.4548    2.0088 C   0  0  0  0  0  0  0  0  0  0  0  0
   -5.9011   -1.0962   -1.6614 C   0  0  0  0  0  0  0  0  0  0  0  0
   -6.2446   -1.1677    1.8999 C   0  0  0  0  0  0  0  0  0  0  0  0
   -1.8962   -5.1333    1.3804 N   0  0  0  0  0  0  0  0  0  0  0  0
   -1.6334   -5.8996    0.1942 C   0  0  2  0  0  0  0  0  0  0  0  0
   -0.0742   -5.9847    0.1559 C   0  0  2  0  0  0  0  0  0  0  0  0
    0.3301   -5.1774    1.2778 N   0  0  0  0  0  0  0  0  0  0  0  0
   -0.7430   -4.7409    2.0407 C   0  0  0  0  0  0  0  0  0  0  0  0
   -1.9639   -5.2801   -1.0628 N   0  0  0  0  0  0  0  0  0  0  0  0
   -0.8616   -5.1300   -1.8915 C   0  0  0  0  0  0  0  0  0  0  0  0
    0.2548   -5.4872   -1.1513 N   0  0  0  0  0  0  0  0  0  0  0  0
   -0.6831   -4.1809    3.1082 O   0  0  0  0  0  0  0  0  0  0  0  0
   -0.8757   -4.8087   -3.0564 O   0  0  0  0  0  0  0  0  0  0  0  0
   -3.1951   -4.9653    1.9683 C   0  0  0  0  0  0  0  0  0  0  0  0
   -3.2991   -5.2128   -1.5937 C   0  0  0  0  0  0  0  0  0  0  0  0
    3.7995    5.0649   -0.3130 H   0  0  0  0  0  0  0  0  0  0  0  0
    1.5255    6.3072    0.1582 H   0  0  0  0  0  0  0  0  0  0  0  0
   -1.9059    6.4854    0.3931 H   0  0  0  0  0  0  0  0  0  0  0  0
   -4.3430    5.5105    0.3003 H   0  0  0  0  0  0  0  0  0  0  0  0
    5.3163   -3.6735   -0.4621 H   0  0  0  0  0  0  0  0  0  0  0  0
    3.6007   -5.6175    0.0097 H   0  0  0  0  0  0  0  0  0  0  0  0
   -5.2470   -5.1365    0.2704 H   0  0  0  0  0  0  0  0  0  0  0  0
   -6.7647   -3.0019    0.0003 H   0  0  0  0  0  0  0  0  0  0  0  0
   -6.6665    2.9143    0.2779 H   0  0  0  0  0  0  0  0  0  0  0  0
   -7.3615    0.3899    0.0032 H   0  0  0  0  0  0  0  0  0  0  0  0
    1.9684   -6.5323   -1.5124 H   0  0  0  0  0  0  0  0  0  0  0  0
    1.4109   -5.4139   -2.7982 H   0  0  0  0  0  0  0  0  0  0  0  0
   -0.0978    6.2307    1.8767 H   0  0  0  0  0  0  0  0  0  0  0  0
   -0.1064    4.7610    2.8917 H   0  0  0  0  0  0  0  0  0  0  0  0
    1.6221   -4.8306    2.8181 H   0  0  0  0  0  0  0  0  0  0  0  0
    2.0694   -6.1231    1.6682 H   0  0  0  0  0  0  0  0  0  0  0  0
   -0.4354    5.5375   -2.7023 H   0  0  0  0  0  0  0  0  0  0  0  0
   -0.2852    6.6450   -1.2991 H   0  0  0  0  0  0  0  0  0  0  0  0
    5.7986    2.2457   -0.5431 H   0  0  0  0  0  0  0  0  0  0  0  0
    6.2408   -0.3362   -0.6255 H   0  0  0  0  0  0  0  0  0  0  0  0
    4.6181    3.6890   -2.0403 H   0  0  0  0  0  0  0  0  0  0  0  0
    3.3914    2.8956   -3.0719 H   0  0  0  0  0  0  0  0  0  0  0  0
    4.1949    2.9570    2.5231 H   0  0  0  0  0  0  0  0  0  0  0  0
    5.0545    3.6751    1.1246 H   0  0  0  0  0  0  0  0  0  0  0  0
    5.0595   -1.6490    2.4488 H   0  0  0  0  0  0  0  0  0  0  0  0
    6.0737   -1.9949    1.0112 H   0  0  0  0  0  0  0  0  0  0  0  0
    5.5729   -2.0317   -2.1442 H   0  0  0  0  0  0  0  0  0  0  0  0
    4.1246   -1.6732   -3.1278 H   0  0  0  0  0  0  0  0  0  0  0  0
   -4.6880    3.5677   -2.6092 H   0  0  0  0  0  0  0  0  0  0  0  0
   -5.5685    4.3494   -1.2603 H   0  0  0  0  0  0  0  0  0  0  0  0
   -5.5159    4.1514    1.9115 H   0  0  0  0  0  0  0  0  0  0  0  0
   -4.4721    3.2156    3.0243 H   0  0  0  0  0  0  0  0  0  0  0  0
   -5.6057   -1.0393   -2.6883 H   0  0  0  0  0  0  0  0  0  0  0  0
   -6.9478   -1.2783   -1.5346 H   0  0  0  0  0  0  0  0  0  0  0  0
   -7.2744   -1.3518    1.6752 H   0  0  0  0  0  0  0  0  0  0  0  0
   -6.0267   -1.1341    2.9469 H   0  0  0  0  0  0  0  0  0  0  0  0
   -2.2115   -6.7972    0.2650 H   0  0  0  0  0  0  0  0  0  0  0  0
    0.4082   -6.9340    0.2608 H   0  0  0  0  0  0  0  0  0  0  0  0
   -3.7170   -5.8963    1.8919 H   0  0  0  0  0  0  0  0  0  0  0  0
   -3.0284   -4.6535    2.9782 H   0  0  0  0  0  0  0  0  0  0  0  0
   -3.2272   -5.0925   -2.6545 H   0  0  0  0  0  0  0  0  0  0  0  0
   -3.7814   -6.1205   -1.2964 H   0  0  0  0  0  0  0  0  0  0  0  0
  1  5  1  0
  1 65  1  0
  2  1  1  0
  2  6  1  0
  2  3  1  0
  2 85  1  6
  3  4  1  0
  3  8  1  0
  3 86  1  1
  4  5  1  0
  5  9  2  0
  6 66  1  0
  6  7  1  0
  7 10  2  0
  8 52  1  0
  8  7  1  0
 11 15  1  0
 12 11  1  0
 12 16  1  0
 12 13  1  0
 12 87  1  1
 13 14  1  0
 13 18  1  0
 13 88  1  1
 14 69  1  0
 15 19  2  0
 15 14  1  0
 16 17  1  0
 17 18  1  0
 17 20  2  0
 18 70  1  0
 21 25  1  0
 22 21  1  0
 22 23  1  0
 22 89  1  6
 23 24  1  0
 23 28  1  0
 23 90  1  1
 24 51  1  0
 25 24  1  0
 26 22  1  0
 26 27  1  0
 27 28  1  0
 28 53  1  0
 29 25  2  0
 30 27  2  0
 31 84  1  0
 32 31  1  0
 32 33  1  0
 32 91  1  1
 33 34  1  0
 33 92  1  6
 34 35  1  0
 35 31  1  0
 36 32  1  0
 36 83  1  0
 37 36  1  0
 38 37  1  0
 38 33  1  0
 39 35  2  0
 40 37  2  0
 41 45  1  0
 42 41  1  0
 42 43  1  0
 42 93  1  1
 43 44  1  0
 43 48  1  0
 43 94  1  6
 44 71  1  0
 45 44  1  0
 46 42  1  0
 46 47  1  0
 47 50  2  0
 47 48  1  0
 48 72  1  0
 49 45  2  0
 51 80  1  0
 51 95  1  0
 51 96  1  0
 52 16  1  0
 52 97  1  0
 52 98  1  0
 53 76  1  0
 53 99  1  0
 53100  1  0
 54  4  1  0
 54 11  1  0
 54101  1  0
 54102  1  0
 55 59  1  0
 56 55  1  0
 56 60  1  0
 56 57  1  0
 56103  1  6
 57 58  1  0
 57 62  1  0
 57104  1  6
 58 68  1  0
 59 63  2  0
 59 58  1  0
 60 61  1  0
 61 64  2  0
 61 62  1  0
 62 67  1  0
 65 55  1  0
 65105  1  0
 65106  1  0
 66 60  1  0
 66107  1  0
 66108  1  0
 67 26  1  0
 67109  1  0
 67110  1  0
 68 21  1  0
 68111  1  0
 68112  1  0
 69 41  1  0
 69113  1  0
 69114  1  0
 70 46  1  0
 70115  1  0
 70116  1  0
 71 34  1  0
 71117  1  0
 71118  1  0
 72 38  1  0
 72119  1  0
 72120  1  0
 73 74  1  0
 73 83  1  0
 74 78  1  0
 74 75  1  0
 74121  1  1
 75 80  1  0
 75122  1  1
 76 77  1  0
 76 75  1  0
 77 73  1  0
 78 84  1  0
 79 78  1  0
 80 79  1  0
 81 77  2  0
 82 79  2  0
 83123  1  0
 83124  1  0
 84125  1  0
 84126  1  0
M  END
