 xtb: 6.6.0 (2ccbbd7)
          10292322393D

140161  0     0  0            999 V2000
    1.5322   -0.6621   -5.1754 N   0  0  0  0  0  0  0  0  0  0  0  0
    1.3097    0.6225   -5.7966 C   0  0  0  0  0  0  0  0  0  0  0  0
   -0.2334    0.6925   -5.9375 C   0  0  0  0  0  0  0  0  0  0  0  0
   -0.6754   -0.5491   -5.3490 N   0  0  0  0  0  0  0  0  0  0  0  0
    0.3644   -1.3285   -4.9108 C   0  0  0  0  0  0  0  0  0  0  0  0
    1.6124    1.7473   -4.9483 N   0  0  0  0  0  0  0  0  0  0  0  0
    0.4941    2.4312   -4.5532 C   0  0  0  0  0  0  0  0  0  0  0  0
   -0.5881    1.8555   -5.1641 N   0  0  0  0  0  0  0  0  0  0  0  0
    0.2658   -2.4360   -4.4275 O   0  0  0  0  0  0  0  0  0  0  0  0
    0.4733    3.4128   -3.8448 O   0  0  0  0  0  0  0  0  0  0  0  0
   -2.9045   -0.5221   -4.4299 N   0  0  0  0  0  0  0  0  0  0  0  0
   -3.6242    0.7260   -4.5505 C   0  0  0  0  0  0  0  0  0  0  0  0
   -4.6216    0.6711   -3.3640 C   0  0  0  0  0  0  0  0  0  0  0  0
   -4.4094   -0.6384   -2.8039 N   0  0  0  0  0  0  0  0  0  0  0  0
   -3.3872   -1.3133   -3.4205 C   0  0  0  0  0  0  0  0  0  0  0  0
   -2.8271    1.8910   -4.2630 N   0  0  0  0  0  0  0  0  0  0  0  0
   -3.1367    2.4582   -3.0561 C   0  0  0  0  0  0  0  0  0  0  0  0
   -4.1719    1.7480   -2.5102 N   0  0  0  0  0  0  0  0  0  0  0  0
   -3.0121   -2.4335   -3.1505 O   0  0  0  0  0  0  0  0  0  0  0  0
   -2.6200    3.4441   -2.5739 O   0  0  0  0  0  0  0  0  0  0  0  0
    5.1691   -1.5728    0.2452 N   0  0  0  0  0  0  0  0  0  0  0  0
    5.7122   -0.4324    0.9417 C   0  0  0  0  0  0  0  0  0  0  0  0
    5.2776   -0.6686    2.4115 C   0  0  0  0  0  0  0  0  0  0  0  0
    4.5292   -1.9000    2.3413 N   0  0  0  0  0  0  0  0  0  0  0  0
    4.4695   -2.4134    1.0719 C   0  0  0  0  0  0  0  0  0  0  0  0
    5.0758    0.8171    0.6055 N   0  0  0  0  0  0  0  0  0  0  0  0
    4.3195    1.3179    1.6328 C   0  0  0  0  0  0  0  0  0  0  0  0
    4.4719    0.4881    2.7115 N   0  0  0  0  0  0  0  0  0  0  0  0
    3.9613   -3.4660    0.7531 O   0  0  0  0  0  0  0  0  0  0  0  0
    3.6794    2.3479    1.6090 O   0  0  0  0  0  0  0  0  0  0  0  0
   -1.5745   -1.9853    4.6867 N   0  0  0  0  0  0  0  0  0  0  0  0
   -2.2057   -0.9044    5.4126 C   0  0  0  0  0  0  0  0  0  0  0  0
   -3.5010   -0.6434    4.6000 C   0  0  0  0  0  0  0  0  0  0  0  0
   -3.4828   -1.6754    3.5951 N   0  0  0  0  0  0  0  0  0  0  0  0
   -2.3420   -2.4338    3.6426 C   0  0  0  0  0  0  0  0  0  0  0  0
   -1.5028    0.3479    5.3298 N   0  0  0  0  0  0  0  0  0  0  0  0
   -2.1284    1.2549    4.5140 C   0  0  0  0  0  0  0  0  0  0  0  0
   -3.2943    0.6850    4.0752 N   0  0  0  0  0  0  0  0  0  0  0  0
   -2.0767   -3.3641    2.9114 O   0  0  0  0  0  0  0  0  0  0  0  0
   -1.7564    2.3807    4.2811 O   0  0  0  0  0  0  0  0  0  0  0  0
   -5.1480   -0.9654   -0.5288 N   0  0  0  0  0  0  0  0  0  0  0  0
   -5.6011    0.2601    0.0784 C   0  0  0  0  0  0  0  0  0  0  0  0
   -5.3965    0.0048    1.5932 C   0  0  0  0  0  0  0  0  0  0  0  0
   -4.8410   -1.3254    1.6313 N   0  0  0  0  0  0  0  0  0  0  0  0
   -4.6749   -1.8693    0.3853 C   0  0  0  0  0  0  0  0  0  0  0  0
   -4.7394    1.3853   -0.1891 N   0  0  0  0  0  0  0  0  0  0  0  0
   -4.0441    1.7893    0.9208 C   0  0  0  0  0  0  0  0  0  0  0  0
   -4.4602    1.0278    1.9855 N   0  0  0  0  0  0  0  0  0  0  0  0
   -4.2550   -2.9791    0.1407 O   0  0  0  0  0  0  0  0  0  0  0  0
   -3.2344    2.6890    0.9686 O   0  0  0  0  0  0  0  0  0  0  0  0
    4.0832   -2.6333    3.4953 C   0  0  0  0  0  0  0  0  0  0  0  0
   -1.8866    2.4766   -5.1789 C   0  0  0  0  0  0  0  0  0  0  0  0
    4.1092    0.8838    4.0451 C   0  0  0  0  0  0  0  0  0  0  0  0
   -2.0227   -1.0407   -5.4429 C   0  0  0  0  0  0  0  0  0  0  0  0
    3.6065   -0.9229   -3.9562 N   0  0  0  0  0  0  0  0  0  0  0  0
    4.3972    0.2844   -3.8954 C   0  0  0  0  0  0  0  0  0  0  0  0
    5.2197    0.1028   -2.5934 C   0  0  0  0  0  0  0  0  0  0  0  0
    4.8230   -1.2024   -2.1245 N   0  0  0  0  0  0  0  0  0  0  0  0
    3.8662   -1.7795   -2.9190 C   0  0  0  0  0  0  0  0  0  0  0  0
    3.6286    1.4738   -3.6443 N   0  0  0  0  0  0  0  0  0  0  0  0
    3.8046    1.9562   -2.3721 C   0  0  0  0  0  0  0  0  0  0  0  0
    4.7628    1.1888   -1.7637 N   0  0  0  0  0  0  0  0  0  0  0  0
    3.3911   -2.8858   -2.7719 O   0  0  0  0  0  0  0  0  0  0  0  0
    3.2638    2.9300   -1.9015 O   0  0  0  0  0  0  0  0  0  0  0  0
    2.8177   -1.3034   -5.0965 C   0  0  0  0  0  0  0  0  0  0  0  0
    2.9381    2.2172   -4.6616 C   0  0  0  0  0  0  0  0  0  0  0  0
    5.4130    1.5996   -0.5502 C   0  0  0  0  0  0  0  0  0  0  0  0
    5.5222   -1.9322   -1.1018 C   0  0  0  0  0  0  0  0  0  0  0  0
   -5.3326   -1.2908   -1.9155 C   0  0  0  0  0  0  0  0  0  0  0  0
   -4.8836    2.2175   -1.3557 C   0  0  0  0  0  0  0  0  0  0  0  0
   -4.6388   -2.0757    2.8381 C   0  0  0  0  0  0  0  0  0  0  0  0
   -4.2777    1.4405    3.3514 C   0  0  0  0  0  0  0  0  0  0  0  0
    0.8999    0.1558    5.4525 N   0  0  0  0  0  0  0  0  0  0  0  0
    1.4414   -1.1563    5.6925 C   0  0  0  0  0  0  0  0  0  0  0  0
    2.8719   -1.0745    5.0992 C   0  0  0  0  0  0  0  0  0  0  0  0
    2.9182    0.2587    4.5487 N   0  0  0  0  0  0  0  0  0  0  0  0
    1.7525    0.9499    4.7296 C   0  0  0  0  0  0  0  0  0  0  0  0
    0.8192   -2.1935    4.9034 N   0  0  0  0  0  0  0  0  0  0  0  0
    1.6736   -2.7498    3.9873 C   0  0  0  0  0  0  0  0  0  0  0  0
    2.8861   -2.1207    4.1062 N   0  0  0  0  0  0  0  0  0  0  0  0
    1.5272    2.0845    4.3682 O   0  0  0  0  0  0  0  0  0  0  0  0
    1.4211   -3.6801    3.2529 O   0  0  0  0  0  0  0  0  0  0  0  0
   -0.3034    0.6622    6.0560 C   0  0  0  0  0  0  0  0  0  0  0  0
   -0.4702   -2.7548    5.1977 C   0  0  0  0  0  0  0  0  0  0  0  0
    1.8756    0.7081   -6.7297 H   0  0  0  0  0  0  0  0  0  0  0  0
   -0.6057    0.7869   -6.9679 H   0  0  0  0  0  0  0  0  0  0  0  0
   -4.0837    0.7961   -5.5555 H   0  0  0  0  0  0  0  0  0  0  0  0
   -5.6838    0.7898   -3.6419 H   0  0  0  0  0  0  0  0  0  0  0  0
    6.7990   -0.3751    0.7743 H   0  0  0  0  0  0  0  0  0  0  0  0
    6.1037   -0.7799    3.1358 H   0  0  0  0  0  0  0  0  0  0  0  0
   -2.3545   -1.1710    6.4582 H   0  0  0  0  0  0  0  0  0  0  0  0
   -4.4303   -0.6672    5.1699 H   0  0  0  0  0  0  0  0  0  0  0  0
   -6.6341    0.4735   -0.2347 H   0  0  0  0  0  0  0  0  0  0  0  0
   -6.3002    0.0649    2.2040 H   0  0  0  0  0  0  0  0  0  0  0  0
    4.8801   -2.6574    4.2398 H   0  0  0  0  0  0  0  0  0  0  0  0
    3.8448   -3.6502    3.1397 H   0  0  0  0  0  0  0  0  0  0  0  0
   -2.2957    2.4242   -6.2058 H   0  0  0  0  0  0  0  0  0  0  0  0
   -1.7524    3.5124   -4.8695 H   0  0  0  0  0  0  0  0  0  0  0  0
    3.9240    1.9511    4.0253 H   0  0  0  0  0  0  0  0  0  0  0  0
    4.9597    0.6463    4.7282 H   0  0  0  0  0  0  0  0  0  0  0  0
   -1.9703   -2.1275   -5.2943 H   0  0  0  0  0  0  0  0  0  0  0  0
   -2.4259   -0.8022   -6.4356 H   0  0  0  0  0  0  0  0  0  0  0  0
    4.9822    0.4133   -4.8086 H   0  0  0  0  0  0  0  0  0  0  0  0
    6.3081    0.1504   -2.7116 H   0  0  0  0  0  0  0  0  0  0  0  0
    3.3865   -1.0723   -6.0132 H   0  0  0  0  0  0  0  0  0  0  0  0
    2.6382   -2.3727   -5.0046 H   0  0  0  0  0  0  0  0  0  0  0  0
    2.8103    3.2446   -4.2617 H   0  0  0  0  0  0  0  0  0  0  0  0
    3.5218    2.2101   -5.5627 H   0  0  0  0  0  0  0  0  0  0  0  0
    5.0792    2.6203   -0.3371 H   0  0  0  0  0  0  0  0  0  0  0  0
    6.5019    1.5624   -0.6952 H   0  0  0  0  0  0  0  0  0  0  0  0
    6.5993   -1.7896   -1.2397 H   0  0  0  0  0  0  0  0  0  0  0  0
    5.2436   -2.9859   -1.2279 H   0  0  0  0  0  0  0  0  0  0  0  0
   -5.1456   -2.3743   -2.0053 H   0  0  0  0  0  0  0  0  0  0  0  0
   -6.3497   -1.0446   -2.2190 H   0  0  0  0  0  0  0  0  0  0  0  0
   -5.9658    2.2972   -1.6048 H   0  0  0  0  0  0  0  0  0  0  0  0
   -4.4733    3.1963   -1.1275 H   0  0  0  0  0  0  0  0  0  0  0  0
   -4.4859   -3.1109    2.5333 H   0  0  0  0  0  0  0  0  0  0  0  0
   -5.5301   -1.9753    3.4732 H   0  0  0  0  0  0  0  0  0  0  0  0
   -5.2292    1.3859    3.8570 H   0  0  0  0  0  0  0  0  0  0  0  0
   -3.8977    2.4801    3.3153 H   0  0  0  0  0  0  0  0  0  0  0  0
    1.3856   -1.4041    6.7597 H   0  0  0  0  0  0  0  0  0  0  0  0
    3.6903   -1.2359    5.8196 H   0  0  0  0  0  0  0  0  0  0  0  0
   -0.3851    0.2792    7.0655 H   0  0  0  0  0  0  0  0  0  0  0  0
   -0.2137    1.7616    6.0466 H   0  0  0  0  0  0  0  0  0  0  0  0
   -0.5088   -3.7280    4.7031 H   0  0  0  0  0  0  0  0  0  0  0  0
   -0.5781   -2.8553    6.2845 H   0  0  0  0  0  0  0  0  0  0  0  0
   -0.3882    2.1388   -0.9222 C   0  0  0  0  0  0  0  0  0  0  0  0
   -0.8893    0.9224   -1.3762 C   0  0  0  0  0  0  0  0  0  0  0  0
   -1.2842   -0.1906   -0.6439 C   0  0  0  0  0  0  0  0  0  0  0  0
   -1.1845   -0.3980    0.7287 C   0  0  0  0  0  0  0  0  0  0  0  0
   -0.6724    0.4616    1.6931 C   0  0  0  0  0  0  0  0  0  0  0  0
   -0.2224    1.7705    1.5523 C   0  0  0  0  0  0  0  0  0  0  0  0
   -0.1247    2.5271    0.3882 C   0  0  0  0  0  0  0  0  0  0  0  0
   -0.2469    2.8835   -1.6683 H   0  0  0  0  0  0  0  0  0  0  0  0
   -1.0815    0.8366   -2.4149 H   0  0  0  0  0  0  0  0  0  0  0  0
   -1.7355   -1.0242   -1.1609 H   0  0  0  0  0  0  0  0  0  0  0  0
   -1.5021   -1.3768    1.1184 H   0  0  0  0  0  0  0  0  0  0  0  0
   -0.5653    0.0477    2.7171 H   0  0  0  0  0  0  0  0  0  0  0  0
    0.1545    2.2521    2.4692 H   0  0  0  0  0  0  0  0  0  0  0  0
    0.2385    3.5330    0.5195 H   0  0  0  0  0  0  0  0  0  0  0  0
  1  5  1  0  0  0  0
  1 65  1  0  0  0  0
  2  1  1  0  0  0  0
  2  6  1  0  0  0  0
  2  3  1  0  0  0  0
  2 85  1  0  0  0  0
  3  4  1  0  0  0  0
  3  8  1  0  0  0  0
  3 86  1  0  0  0  0
  4  5  1  0  0  0  0
  5  9  2  0  0  0  0
  6 66  1  0  0  0  0
  6  7  1  0  0  0  0
  7 10  2  0  0  0  0
  8 52  1  0  0  0  0
  8  7  1  0  0  0  0
 11 15  1  0  0  0  0
 12 11  1  0  0  0  0
 12 16  1  0  0  0  0
 12 13  1  0  0  0  0
 12 87  1  0  0  0  0
 13 14  1  0  0  0  0
 13 18  1  0  0  0  0
 13 88  1  0  0  0  0
 14 69  1  0  0  0  0
 15 19  2  0  0  0  0
 15 14  1  0  0  0  0
 16 17  1  0  0  0  0
 17 18  1  0  0  0  0
 17 20  2  0  0  0  0
 18 70  1  0  0  0  0
 21 25  1  0  0  0  0
 22 21  1  0  0  0  0
 22 23  1  0  0  0  0
 22 89  1  0  0  0  0
 23 24  1  0  0  0  0
 23 28  1  0  0  0  0
 23 90  1  0  0  0  0
 24 51  1  0  0  0  0
 25 24  1  0  0  0  0
 26 22  1  0  0  0  0
 26 27  1  0  0  0  0
 27 28  1  0  0  0  0
 28 53  1  0  0  0  0
 29 25  2  0  0  0  0
 30 27  2  0  0  0  0
 31 84  1  0  0  0  0
 32 31  1  0  0  0  0
 32 33  1  0  0  0  0
 32 91  1  0  0  0  0
 33 34  1  0  0  0  0
 33 92  1  0  0  0  0
 34 35  1  0  0  0  0
 35 31  1  0  0  0  0
 36 32  1  0  0  0  0
 36 83  1  0  0  0  0
 37 36  1  0  0  0  0
 38 37  1  0  0  0  0
 38 33  1  0  0  0  0
 39 35  2  0  0  0  0
 40 37  2  0  0  0  0
 41 45  1  0  0  0  0
 42 41  1  0  0  0  0
 42 43  1  0  0  0  0
 42 93  1  0  0  0  0
 43 44  1  0  0  0  0
 43 48  1  0  0  0  0
 43 94  1  0  0  0  0
 44 71  1  0  0  0  0
 45 44  1  0  0  0  0
 46 42  1  0  0  0  0
 46 47  1  0  0  0  0
 47 50  2  0  0  0  0
 47 48  1  0  0  0  0
 48 72  1  0  0  0  0
 49 45  2  0  0  0  0
 51 80  1  0  0  0  0
 51 95  1  0  0  0  0
 51 96  1  0  0  0  0
 52 16  1  0  0  0  0
 52 97  1  0  0  0  0
 52 98  1  0  0  0  0
 53 76  1  0  0  0  0
 53 99  1  0  0  0  0
 53100  1  0  0  0  0
 54  4  1  0  0  0  0
 54 11  1  0  0  0  0
 54101  1  0  0  0  0
 54102  1  0  0  0  0
 55 59  1  0  0  0  0
 56 55  1  0  0  0  0
 56 60  1  0  0  0  0
 56 57  1  0  0  0  0
 56103  1  0  0  0  0
 57 58  1  0  0  0  0
 57 62  1  0  0  0  0
 57104  1  0  0  0  0
 58 68  1  0  0  0  0
 59 63  2  0  0  0  0
 59 58  1  0  0  0  0
 60 61  1  0  0  0  0
 61 64  2  0  0  0  0
 61 62  1  0  0  0  0
 62 67  1  0  0  0  0
 65 55  1  0  0  0  0
 65105  1  0  0  0  0
 65106  1  0  0  0  0
 66 60  1  0  0  0  0
 66107  1  0  0  0  0
 66108  1  0  0  0  0
 67 26  1  0  0  0  0
 67109  1  0  0  0  0
 67110  1  0  0  0  0
 68 21  1  0  0  0  0
 68111  1  0  0  0  0
 68112  1  0  0  0  0
 69 41  1  0  0  0  0
 69113  1  0  0  0  0
 69114  1  0  0  0  0
 70 46  1  0  0  0  0
 70115  1  0  0  0  0
 70116  1  0  0  0  0
 71 34  1  0  0  0  0
 71117  1  0  0  0  0
 71118  1  0  0  0  0
 72 38  1  0  0  0  0
 72119  1  0  0  0  0
 72120  1  0  0  0  0
 73 74  1  0  0  0  0
 73 83  1  0  0  0  0
 74 78  1  0  0  0  0
 74 75  1  0  0  0  0
 74121  1  0  0  0  0
 75 80  1  0  0  0  0
 75122  1  0  0  0  0
 76 77  1  0  0  0  0
 76 75  1  0  0  0  0
 77 73  1  0  0  0  0
 78 84  1  0  0  0  0
 79 78  1  0  0  0  0
 80 79  1  0  0  0  0
 81 77  2  0  0  0  0
 82 79  2  0  0  0  0
 83123  1  0  0  0  0
 83124  1  0  0  0  0
 84125  1  0  0  0  0
 84126  1  0  0  0  0
127128  2  0  0  0  0
127134  1  0  0  0  0
128129  1  0  0  0  0
128135  1  0  0  0  0
129130  2  0  0  0  0
129136  1  0  0  0  0
130131  1  0  0  0  0
130137  1  0  0  0  0
131132  2  0  0  0  0
131138  1  0  0  0  0
132133  1  0  0  0  0
132139  1  0  0  0  0
133127  1  0  0  0  0
133140  1  0  0  0  0
M  CHG  1 131   1
M  END
$$$$
