 energy: -269.330290777235 gnorm: 0.005120834481 xtb: 6.6.1 (8d0f1dd)
          11112314063D

140161  0     0  0            999 V2000
    1.4330   -0.5781   -5.1253 N   0  0  0  0  0  0  0  0  0  0  0  0
    1.2390    0.7103   -5.7443 C   0  0  0  0  0  0  0  0  0  0  0  0
   -0.3041    0.8266   -5.8568 C   0  0  0  0  0  0  0  0  0  0  0  0
   -0.7744   -0.4138   -5.2902 N   0  0  0  0  0  0  0  0  0  0  0  0
    0.2508   -1.2341   -4.8942 C   0  0  0  0  0  0  0  0  0  0  0  0
    1.5990    1.8349   -4.9177 N   0  0  0  0  0  0  0  0  0  0  0  0
    0.5163    2.5994   -4.5755 C   0  0  0  0  0  0  0  0  0  0  0  0
   -0.6056    2.0019   -5.0778 N   0  0  0  0  0  0  0  0  0  0  0  0
    0.1354   -2.3675   -4.4809 O   0  0  0  0  0  0  0  0  0  0  0  0
    0.5566    3.6615   -3.9926 O   0  0  0  0  0  0  0  0  0  0  0  0
   -3.0344   -0.4310   -4.4400 N   0  0  0  0  0  0  0  0  0  0  0  0
   -3.6693    0.8637   -4.4752 C   0  0  0  0  0  0  0  0  0  0  0  0
   -4.7055    0.7815   -3.3252 C   0  0  0  0  0  0  0  0  0  0  0  0
   -4.5159   -0.5490   -2.7985 N   0  0  0  0  0  0  0  0  0  0  0  0
   -3.5222   -1.2371   -3.4453 C   0  0  0  0  0  0  0  0  0  0  0  0
   -2.8078    1.9480   -4.0764 N   0  0  0  0  0  0  0  0  0  0  0  0
   -3.1523    2.4683   -2.8544 C   0  0  0  0  0  0  0  0  0  0  0  0
   -4.2899    1.8325   -2.4313 N   0  0  0  0  0  0  0  0  0  0  0  0
   -3.1917   -2.3840   -3.2295 O   0  0  0  0  0  0  0  0  0  0  0  0
   -2.5883    3.3774   -2.2841 O   0  0  0  0  0  0  0  0  0  0  0  0
    5.0983   -1.5499    0.2302 N   0  0  0  0  0  0  0  0  0  0  0  0
    5.7214   -0.4411    0.9107 C   0  0  0  0  0  0  0  0  0  0  0  0
    5.2661   -0.6235    2.3818 C   0  0  0  0  0  0  0  0  0  0  0  0
    4.4426   -1.8080    2.3311 N   0  0  0  0  0  0  0  0  0  0  0  0
    4.3412   -2.3277    1.0670 C   0  0  0  0  0  0  0  0  0  0  0  0
    5.1849    0.8481    0.5530 N   0  0  0  0  0  0  0  0  0  0  0  0
    4.4714    1.4230    1.5716 C   0  0  0  0  0  0  0  0  0  0  0  0
    4.5419    0.5910    2.6571 N   0  0  0  0  0  0  0  0  0  0  0  0
    3.7544   -3.3427    0.7589 O   0  0  0  0  0  0  0  0  0  0  0  0
    3.9429    2.5132    1.5416 O   0  0  0  0  0  0  0  0  0  0  0  0
   -1.6809   -1.8245    4.7466 N   0  0  0  0  0  0  0  0  0  0  0  0
   -2.2686   -0.6703    5.3850 C   0  0  0  0  0  0  0  0  0  0  0  0
   -3.6057   -0.4800    4.6191 C   0  0  0  0  0  0  0  0  0  0  0  0
   -3.5894   -1.5505    3.6500 N   0  0  0  0  0  0  0  0  0  0  0  0
   -2.4642   -2.3289    3.7406 C   0  0  0  0  0  0  0  0  0  0  0  0
   -1.5680    0.5639    5.1387 N   0  0  0  0  0  0  0  0  0  0  0  0
   -2.2638    1.4073    4.3188 C   0  0  0  0  0  0  0  0  0  0  0  0
   -3.4760    0.8356    4.0477 N   0  0  0  0  0  0  0  0  0  0  0  0
   -2.2390   -3.3322    3.0974 O   0  0  0  0  0  0  0  0  0  0  0  0
   -1.9027    2.5058    3.9583 O   0  0  0  0  0  0  0  0  0  0  0  0
   -5.2339   -0.8338   -0.5038 N   0  0  0  0  0  0  0  0  0  0  0  0
   -5.7911    0.3504    0.1029 C   0  0  0  0  0  0  0  0  0  0  0  0
   -5.5914    0.1024    1.6205 C   0  0  0  0  0  0  0  0  0  0  0  0
   -4.9228   -1.1767    1.6641 N   0  0  0  0  0  0  0  0  0  0  0  0
   -4.7124   -1.7057    0.4169 C   0  0  0  0  0  0  0  0  0  0  0  0
   -5.0302    1.5512   -0.1387 N   0  0  0  0  0  0  0  0  0  0  0  0
   -4.4034    2.0151    0.9871 C   0  0  0  0  0  0  0  0  0  0  0  0
   -4.7670    1.2079    2.0337 N   0  0  0  0  0  0  0  0  0  0  0  0
   -4.2234   -2.7891    0.1753 O   0  0  0  0  0  0  0  0  0  0  0  0
   -3.7131    3.0085    1.0598 O   0  0  0  0  0  0  0  0  0  0  0  0
    3.9810   -2.5153    3.4948 C   0  0  0  0  0  0  0  0  0  0  0  0
   -1.9034    2.6119   -4.9780 C   0  0  0  0  0  0  0  0  0  0  0  0
    4.1355    1.0022    3.9727 C   0  0  0  0  0  0  0  0  0  0  0  0
   -2.1200   -0.9002   -5.4426 C   0  0  0  0  0  0  0  0  0  0  0  0
    3.5230   -0.8959   -3.9592 N   0  0  0  0  0  0  0  0  0  0  0  0
    4.3539    0.2827   -3.9207 C   0  0  0  0  0  0  0  0  0  0  0  0
    5.2084    0.0740   -2.6438 C   0  0  0  0  0  0  0  0  0  0  0  0
    4.7469   -1.1968   -2.1378 N   0  0  0  0  0  0  0  0  0  0  0  0
    3.7547   -1.7444   -2.9086 C   0  0  0  0  0  0  0  0  0  0  0  0
    3.6307    1.4985   -3.6480 N   0  0  0  0  0  0  0  0  0  0  0  0
    3.9047    2.0013   -2.4008 C   0  0  0  0  0  0  0  0  0  0  0  0
    4.8543    1.2037   -1.8222 N   0  0  0  0  0  0  0  0  0  0  0  0
    3.2323   -2.8251   -2.7361 O   0  0  0  0  0  0  0  0  0  0  0  0
    3.4367    3.0137   -1.9290 O   0  0  0  0  0  0  0  0  0  0  0  0
    2.7009   -1.2564   -5.0803 C   0  0  0  0  0  0  0  0  0  0  0  0
    2.9485    2.2606   -4.6605 C   0  0  0  0  0  0  0  0  0  0  0  0
    5.5612    1.5772   -0.6274 C   0  0  0  0  0  0  0  0  0  0  0  0
    5.4220   -1.9459   -1.1128 C   0  0  0  0  0  0  0  0  0  0  0  0
   -5.4230   -1.1882   -1.8841 C   0  0  0  0  0  0  0  0  0  0  0  0
   -5.1018    2.3214   -1.3501 C   0  0  0  0  0  0  0  0  0  0  0  0
   -4.7329   -1.9395    2.8685 C   0  0  0  0  0  0  0  0  0  0  0  0
   -4.5379    1.5626    3.4074 C   0  0  0  0  0  0  0  0  0  0  0  0
    0.8451    0.4055    5.2500 N   0  0  0  0  0  0  0  0  0  0  0  0
    1.3572   -0.8910    5.6089 C   0  0  0  0  0  0  0  0  0  0  0  0
    2.7986   -0.8784    5.0379 C   0  0  0  0  0  0  0  0  0  0  0  0
    2.9024    0.4242    4.4312 N   0  0  0  0  0  0  0  0  0  0  0  0
    1.7394    1.1426    4.5172 C   0  0  0  0  0  0  0  0  0  0  0  0
    0.7294   -1.9851    4.9069 N   0  0  0  0  0  0  0  0  0  0  0  0
    1.5776   -2.6027    4.0244 C   0  0  0  0  0  0  0  0  0  0  0  0
    2.7931   -1.9734    4.0975 N   0  0  0  0  0  0  0  0  0  0  0  0
    1.5582    2.2624    4.0927 O   0  0  0  0  0  0  0  0  0  0  0  0
    1.3216   -3.5831    3.3577 O   0  0  0  0  0  0  0  0  0  0  0  0
   -0.3574    0.9697    5.7981 C   0  0  0  0  0  0  0  0  0  0  0  0
   -0.5472   -2.5388    5.2699 C   0  0  0  0  0  0  0  0  0  0  0  0
    1.7824    0.7546   -6.6986 H   0  0  0  0  0  0  0  0  0  0  0  0
   -0.6912    0.9424   -6.8788 H   0  0  0  0  0  0  0  0  0  0  0  0
   -4.0858    1.0530   -5.4734 H   0  0  0  0  0  0  0  0  0  0  0  0
   -5.7531    0.9235   -3.6223 H   0  0  0  0  0  0  0  0  0  0  0  0
    6.8075   -0.4609    0.7479 H   0  0  0  0  0  0  0  0  0  0  0  0
    6.0750   -0.7586    3.1124 H   0  0  0  0  0  0  0  0  0  0  0  0
   -2.3647   -0.8452    6.4647 H   0  0  0  0  0  0  0  0  0  0  0  0
   -4.5134   -0.5420    5.2338 H   0  0  0  0  0  0  0  0  0  0  0  0
   -6.8320    0.4854   -0.2198 H   0  0  0  0  0  0  0  0  0  0  0  0
   -6.5120    0.0682    2.2182 H   0  0  0  0  0  0  0  0  0  0  0  0
    4.7827   -2.5319    4.2422 H   0  0  0  0  0  0  0  0  0  0  0  0
    3.7287   -3.5294    3.1635 H   0  0  0  0  0  0  0  0  0  0  0  0
   -2.3638    2.6521   -5.9714 H   0  0  0  0  0  0  0  0  0  0  0  0
   -1.7343    3.6192   -4.5796 H   0  0  0  0  0  0  0  0  0  0  0  0
    3.9745    2.0852    3.9248 H   0  0  0  0  0  0  0  0  0  0  0  0
    4.9302    0.7495    4.6839 H   0  0  0  0  0  0  0  0  0  0  0  0
   -2.0762   -1.9907   -5.3387 H   0  0  0  0  0  0  0  0  0  0  0  0
   -2.4947   -0.6122   -6.4316 H   0  0  0  0  0  0  0  0  0  0  0  0
    4.9204    0.3764   -4.8567 H   0  0  0  0  0  0  0  0  0  0  0  0
    6.2946    0.0436   -2.8022 H   0  0  0  0  0  0  0  0  0  0  0  0
    3.2498   -1.0519   -6.0069 H   0  0  0  0  0  0  0  0  0  0  0  0
    2.4837   -2.3261   -4.9777 H   0  0  0  0  0  0  0  0  0  0  0  0
    2.8791    3.2911   -4.2934 H   0  0  0  0  0  0  0  0  0  0  0  0
    3.5280    2.2129   -5.5890 H   0  0  0  0  0  0  0  0  0  0  0  0
    5.3173    2.6281   -0.4340 H   0  0  0  0  0  0  0  0  0  0  0  0
    6.6357    1.4439   -0.7980 H   0  0  0  0  0  0  0  0  0  0  0  0
    6.5048   -1.8558   -1.2595 H   0  0  0  0  0  0  0  0  0  0  0  0
    5.0942   -2.9865   -1.2189 H   0  0  0  0  0  0  0  0  0  0  0  0
   -5.2338   -2.2653   -1.9599 H   0  0  0  0  0  0  0  0  0  0  0  0
   -6.4522   -0.9469   -2.1750 H   0  0  0  0  0  0  0  0  0  0  0  0
   -6.1454    2.3563   -1.6848 H   0  0  0  0  0  0  0  0  0  0  0  0
   -4.7308    3.3231   -1.1051 H   0  0  0  0  0  0  0  0  0  0  0  0
   -4.5613   -2.9766    2.5571 H   0  0  0  0  0  0  0  0  0  0  0  0
   -5.6330   -1.8571    3.4888 H   0  0  0  0  0  0  0  0  0  0  0  0
   -5.4638    1.4105    3.9723 H   0  0  0  0  0  0  0  0  0  0  0  0
   -4.2384    2.6168    3.4122 H   0  0  0  0  0  0  0  0  0  0  0  0
    1.2810   -1.0452    6.6936 H   0  0  0  0  0  0  0  0  0  0  0  0
    3.5998   -1.0204    5.7755 H   0  0  0  0  0  0  0  0  0  0  0  0
   -0.4233    0.7055    6.8590 H   0  0  0  0  0  0  0  0  0  0  0  0
   -0.2807    2.0546    5.6622 H   0  0  0  0  0  0  0  0  0  0  0  0
   -0.5846   -3.5458    4.8383 H   0  0  0  0  0  0  0  0  0  0  0  0
   -0.6224   -2.5745    6.3630 H   0  0  0  0  0  0  0  0  0  0  0  0
   -0.1114    2.4528   -0.0478 C   0  0  0  0  0  0  0  0  0  0  0  0
   -0.6614    2.8894    1.1471 C   0  0  0  0  0  0  0  0  0  0  0  0
   -0.6945    4.1730    1.6743 C   0  0  0  0  0  0  0  0  0  0  0  0
   -0.2366    5.3535    1.1069 C   0  0  0  0  0  0  0  0  0  0  0  0
    0.3624    5.5404   -0.1335 C   0  0  0  0  0  0  0  0  0  0  0  0
    0.7045    4.5836   -1.0784 C   0  0  0  0  0  0  0  0  0  0  0  0
    0.5167    3.2098   -1.0244 C   0  0  0  0  0  0  0  0  0  0  0  0
   -0.1771    1.3884   -0.2414 H   0  0  0  0  0  0  0  0  0  0  0  0
   -1.1139    2.1346    1.7746 H   0  0  0  0  0  0  0  0  0  0  0  0
   -1.1497    4.2373    2.6539 H   0  0  0  0  0  0  0  0  0  0  0  0
   -0.3763    6.2449    1.7053 H   0  0  0  0  0  0  0  0  0  0  0  0
    0.6081    6.5628   -0.3916 H   0  0  0  0  0  0  0  0  0  0  0  0
    1.1800    4.9345   -1.9848 H   0  0  0  0  0  0  0  0  0  0  0  0
    0.9032    2.6671   -1.8742 H   0  0  0  0  0  0  0  0  0  0  0  0
  1  5  1  0  0  0  0
  1 65  1  0  0  0  0
  2  1  1  0  0  0  0
  2  6  1  0  0  0  0
  2  3  1  0  0  0  0
  2 85  1  0  0  0  0
  3  4  1  0  0  0  0
  3  8  1  0  0  0  0
  3 86  1  0  0  0  0
  4  5  1  0  0  0  0
  5  9  2  0  0  0  0
  6 66  1  0  0  0  0
  6  7  1  0  0  0  0
  7 10  2  0  0  0  0
  8 52  1  0  0  0  0
  8  7  1  0  0  0  0
 11 15  1  0  0  0  0
 12 11  1  0  0  0  0
 12 16  1  0  0  0  0
 12 13  1  0  0  0  0
 12 87  1  0  0  0  0
 13 14  1  0  0  0  0
 13 18  1  0  0  0  0
 13 88  1  0  0  0  0
 14 69  1  0  0  0  0
 15 19  2  0  0  0  0
 15 14  1  0  0  0  0
 16 17  1  0  0  0  0
 17 18  1  0  0  0  0
 17 20  2  0  0  0  0
 18 70  1  0  0  0  0
 21 25  1  0  0  0  0
 22 21  1  0  0  0  0
 22 23  1  0  0  0  0
 22 89  1  0  0  0  0
 23 24  1  0  0  0  0
 23 28  1  0  0  0  0
 23 90  1  0  0  0  0
 24 51  1  0  0  0  0
 25 24  1  0  0  0  0
 26 22  1  0  0  0  0
 26 27  1  0  0  0  0
 27 28  1  0  0  0  0
 28 53  1  0  0  0  0
 29 25  2  0  0  0  0
 30 27  2  0  0  0  0
 31 84  1  0  0  0  0
 32 31  1  0  0  0  0
 32 33  1  0  0  0  0
 32 91  1  0  0  0  0
 33 34  1  0  0  0  0
 33 92  1  0  0  0  0
 34 35  1  0  0  0  0
 35 31  1  0  0  0  0
 36 32  1  0  0  0  0
 36 83  1  0  0  0  0
 37 36  1  0  0  0  0
 38 37  1  0  0  0  0
 38 33  1  0  0  0  0
 39 35  2  0  0  0  0
 40 37  2  0  0  0  0
 41 45  1  0  0  0  0
 42 41  1  0  0  0  0
 42 43  1  0  0  0  0
 42 93  1  0  0  0  0
 43 44  1  0  0  0  0
 43 48  1  0  0  0  0
 43 94  1  0  0  0  0
 44 71  1  0  0  0  0
 45 44  1  0  0  0  0
 46 42  1  0  0  0  0
 46 47  1  0  0  0  0
 47 50  2  0  0  0  0
 47 48  1  0  0  0  0
 48 72  1  0  0  0  0
 49 45  2  0  0  0  0
 51 80  1  0  0  0  0
 51 95  1  0  0  0  0
 51 96  1  0  0  0  0
 52 16  1  0  0  0  0
 52 97  1  0  0  0  0
 52 98  1  0  0  0  0
 53 76  1  0  0  0  0
 53 99  1  0  0  0  0
 53100  1  0  0  0  0
 54  4  1  0  0  0  0
 54 11  1  0  0  0  0
 54101  1  0  0  0  0
 54102  1  0  0  0  0
 55 59  1  0  0  0  0
 56 55  1  0  0  0  0
 56 60  1  0  0  0  0
 56 57  1  0  0  0  0
 56103  1  0  0  0  0
 57 58  1  0  0  0  0
 57 62  1  0  0  0  0
 57104  1  0  0  0  0
 58 68  1  0  0  0  0
 59 63  2  0  0  0  0
 59 58  1  0  0  0  0
 60 61  1  0  0  0  0
 61 64  2  0  0  0  0
 61 62  1  0  0  0  0
 62 67  1  0  0  0  0
 65 55  1  0  0  0  0
 65105  1  0  0  0  0
 65106  1  0  0  0  0
 66 60  1  0  0  0  0
 66107  1  0  0  0  0
 66108  1  0  0  0  0
 67 26  1  0  0  0  0
 67109  1  0  0  0  0
 67110  1  0  0  0  0
 68 21  1  0  0  0  0
 68111  1  0  0  0  0
 68112  1  0  0  0  0
 69 41  1  0  0  0  0
 69113  1  0  0  0  0
 69114  1  0  0  0  0
 70 46  1  0  0  0  0
 70115  1  0  0  0  0
 70116  1  0  0  0  0
 71 34  1  0  0  0  0
 71117  1  0  0  0  0
 71118  1  0  0  0  0
 72 38  1  0  0  0  0
 72119  1  0  0  0  0
 72120  1  0  0  0  0
 73 74  1  0  0  0  0
 73 83  1  0  0  0  0
 74 78  1  0  0  0  0
 74 75  1  0  0  0  0
 74121  1  0  0  0  0
 75 80  1  0  0  0  0
 75122  1  0  0  0  0
 76 77  1  0  0  0  0
 76 75  1  0  0  0  0
 77 73  1  0  0  0  0
 78 84  1  0  0  0  0
 79 78  1  0  0  0  0
 80 79  1  0  0  0  0
 81 77  2  0  0  0  0
 82 79  2  0  0  0  0
 83123  1  0  0  0  0
 83124  1  0  0  0  0
 84125  1  0  0  0  0
 84126  1  0  0  0  0
127128  2  0  0  0  0
127134  1  0  0  0  0
128129  1  0  0  0  0
128135  1  0  0  0  0
129130  2  0  0  0  0
129136  1  0  0  0  0
130131  1  0  0  0  0
130137  1  0  0  0  0
131132  2  0  0  0  0
131138  1  0  0  0  0
132133  1  0  0  0  0
132139  1  0  0  0  0
133127  1  0  0  0  0
133140  1  0  0  0  0
M  CHG  1 131   1
M  END
$$$$
