
     RDKit          3D

 14 14  0  0  0  0  0  0  0  0999 V2000
   -0.8754    1.3410   -0.0309 C   0  0  0  0  0  0  0  0  0  0  0  0
    0.5021    1.5187   -0.0830 C   0  0  0  0  0  0  0  0  0  0  0  0
    1.5015    0.5528   -0.0725 C   0  0  0  0  0  0  0  0  0  0  0  0
    1.3702   -0.8293   -0.0075 C   0  0  0  0  0  0  0  0  0  0  0  0
    0.2071   -1.5870    0.0632 C   0  0  0  0  0  3  0  0  0  0  0  0
   -1.1119   -1.1496    0.0863 C   0  0  0  0  0  0  0  0  0  0  0  0
   -1.5937    0.1535    0.0444 C   0  0  0  0  0  0  0  0  0  0  0  0
   -1.4677    2.2483   -0.0519 H   0  0  0  0  0  0  0  0  0  0  0  0
    0.8419    2.5463   -0.1391 H   0  0  0  0  0  0  0  0  0  0  0  0
    2.5175    0.9269   -0.1216 H   0  0  0  0  0  0  0  0  0  0  0  0
    2.2974   -1.3905   -0.0125 H   0  0  0  0  0  0  0  0  0  0  0  0
    0.3473   -2.6608    0.1060 H   0  0  0  0  0  0  0  0  0  0  0  0
   -1.8643   -1.9275    0.1447 H   0  0  0  0  0  0  0  0  0  0  0  0
   -2.6721    0.2573    0.0744 H   0  0  0  0  0  0  0  0  0  0  0  0
  1  2  2  0
  2  3  1  0
  3  4  2  0
  4  5  1  0
  5  6  1  0
  6  7  2  0
  7  1  1  0
  1  8  1  0
  2  9  1  0
  3 10  1  0
  4 11  1  0
  5 12  1  0
  6 13  1  0
  7 14  1  0
M  CHG  1   5   1
M  END
$$$$

     RDKit          3D

 14 14  0  0  0  0  0  0  0  0999 V2000
    1.2491    0.5597   -0.8319 C   0  0  0  0  0  0  0  0  0  0  0  0
    1.3692    0.6219    0.5514 C   0  0  0  0  0  0  0  0  0  0  0  0
    0.4583    0.2157    1.5195 C   0  0  0  0  0  0  0  0  0  0  0  0
   -0.7977   -0.3528    1.3433 C   0  0  0  0  0  0  0  0  0  0  0  0
   -1.4530   -0.6557    0.1556 C   0  0  0  0  0  3  0  0  0  0  0  0
   -1.0142   -0.4648   -1.1493 C   0  0  0  0  0  0  0  0  0  0  0  0
    0.1884    0.0761   -1.5888 C   0  0  0  0  0  0  0  0  0  0  0  0
    2.0943    0.9384   -1.3948 H   0  0  0  0  0  0  0  0  0  0  0  0
    2.2956    1.0427    0.9246 H   0  0  0  0  0  0  0  0  0  0  0  0
    0.7684    0.3617    2.5477 H   0  0  0  0  0  0  0  0  0  0  0  0
   -1.3375   -0.5916    2.2523 H   0  0  0  0  0  0  0  0  0  0  0  0
   -2.4362   -1.0994    0.2609 H   0  0  0  0  0  0  0  0  0  0  0  0
   -1.7004   -0.7794   -1.9270 H   0  0  0  0  0  0  0  0  0  0  0  0
    0.3159    0.1276   -2.6638 H   0  0  0  0  0  0  0  0  0  0  0  0
  1  2  2  0
  2  3  1  0
  3  4  2  0
  4  5  1  0
  5  6  1  0
  6  7  2  0
  7  1  1  0
  1  8  1  0
  2  9  1  0
  3 10  1  0
  4 11  1  0
  5 12  1  0
  6 13  1  0
  7 14  1  0
M  CHG  1   5   1
M  END
$$$$

     RDKit          3D

 14 14  0  0  0  0  0  0  0  0999 V2000
   -0.0593   -1.3675   -0.8319 C   0  0  0  0  0  0  0  0  0  0  0  0
   -0.0575   -1.5027    0.5514 C   0  0  0  0  0  0  0  0  0  0  0  0
   -0.0125   -0.5064    1.5195 C   0  0  0  0  0  0  0  0  0  0  0  0
    0.0420    0.8713    1.3433 C   0  0  0  0  0  0  0  0  0  0  0  0
    0.0648    1.5928    0.1556 C   0  0  0  0  0  3  0  0  0  0  0  0
    0.0389    1.1149   -1.1493 C   0  0  0  0  0  0  0  0  0  0  0  0
   -0.0164   -0.2025   -1.5888 C   0  0  0  0  0  0  0  0  0  0  0  0
   -0.0994   -2.2927   -1.3948 H   0  0  0  0  0  0  0  0  0  0  0  0
   -0.0965   -2.5195    0.9246 H   0  0  0  0  0  0  0  0  0  0  0  0
   -0.0209   -0.8490    2.5477 H   0  0  0  0  0  0  0  0  0  0  0  0
    0.0704    1.4608    2.2523 H   0  0  0  0  0  0  0  0  0  0  0  0
    0.1087    2.6706    0.2609 H   0  0  0  0  0  0  0  0  0  0  0  0
    0.0651    1.8694   -1.9270 H   0  0  0  0  0  0  0  0  0  0  0  0
   -0.0275   -0.3395   -2.6638 H   0  0  0  0  0  0  0  0  0  0  0  0
  1  2  2  0
  2  3  1  0
  3  4  2  0
  4  5  1  0
  5  6  1  0
  6  7  2  0
  7  1  1  0
  1  8  1  0
  2  9  1  0
  3 10  1  0
  4 11  1  0
  5 12  1  0
  6 13  1  0
  7 14  1  0
M  CHG  1   5   1
M  END
$$$$

     RDKit          3D

 14 14  0  0  0  0  0  0  0  0999 V2000
   -0.0593   -0.0341   -0.8319 C   0  0  0  0  0  0  0  0  0  0  0  0
   -0.0575   -0.1693    0.5514 C   0  0  0  0  0  0  0  0  0  0  0  0
   -0.0125    0.8270    1.5195 C   0  0  0  0  0  0  0  0  0  0  0  0
    0.0420    2.2046    1.3433 C   0  0  0  0  0  0  0  0  0  0  0  0
    0.0648    2.9261    0.1556 C   0  0  0  0  0  3  0  0  0  0  0  0
    0.0389    2.4483   -1.1493 C   0  0  0  0  0  0  0  0  0  0  0  0
   -0.0164    1.1308   -1.5888 C   0  0  0  0  0  0  0  0  0  0  0  0
   -0.0994   -0.9594   -1.3948 H   0  0  0  0  0  0  0  0  0  0  0  0
   -0.0965   -1.1861    0.9246 H   0  0  0  0  0  0  0  0  0  0  0  0
   -0.0209    0.4843    2.5477 H   0  0  0  0  0  0  0  0  0  0  0  0
    0.0704    2.7941    2.2523 H   0  0  0  0  0  0  0  0  0  0  0  0
    0.1087    4.0039    0.2609 H   0  0  0  0  0  0  0  0  0  0  0  0
    0.0651    3.2027   -1.9270 H   0  0  0  0  0  0  0  0  0  0  0  0
   -0.0275    0.9938   -2.6638 H   0  0  0  0  0  0  0  0  0  0  0  0
  1  2  2  0
  2  3  1  0
  3  4  2  0
  4  5  1  0
  5  6  1  0
  6  7  2  0
  7  1  1  0
  1  8  1  0
  2  9  1  0
  3 10  1  0
  4 11  1  0
  5 12  1  0
  6 13  1  0
  7 14  1  0
M  CHG  1   5   1
M  END
$$$$

     RDKit          3D

 14 14  0  0  0  0  0  0  0  0999 V2000
   -0.0593    1.2992   -0.8319 C   0  0  0  0  0  0  0  0  0  0  0  0
   -0.0575    1.1640    0.5514 C   0  0  0  0  0  0  0  0  0  0  0  0
   -0.0125    2.1603    1.5195 C   0  0  0  0  0  0  0  0  0  0  0  0
    0.0420    3.5379    1.3433 C   0  0  0  0  0  0  0  0  0  0  0  0
    0.0648    4.2595    0.1556 C   0  0  0  0  0  3  0  0  0  0  0  0
    0.0389    3.7816   -1.1493 C   0  0  0  0  0  0  0  0  0  0  0  0
   -0.0164    2.4642   -1.5888 C   0  0  0  0  0  0  0  0  0  0  0  0
   -0.0994    0.3739   -1.3948 H   0  0  0  0  0  0  0  0  0  0  0  0
   -0.0965    0.1472    0.9246 H   0  0  0  0  0  0  0  0  0  0  0  0
   -0.0209    1.8177    2.5477 H   0  0  0  0  0  0  0  0  0  0  0  0
    0.0704    4.1275    2.2523 H   0  0  0  0  0  0  0  0  0  0  0  0
    0.1087    5.3372    0.2609 H   0  0  0  0  0  0  0  0  0  0  0  0
    0.0651    4.5360   -1.9270 H   0  0  0  0  0  0  0  0  0  0  0  0
   -0.0275    2.3271   -2.6638 H   0  0  0  0  0  0  0  0  0  0  0  0
  1  2  2  0
  2  3  1  0
  3  4  2  0
  4  5  1  0
  5  6  1  0
  6  7  2  0
  7  1  1  0
  1  8  1  0
  2  9  1  0
  3 10  1  0
  4 11  1  0
  5 12  1  0
  6 13  1  0
  7 14  1  0
M  CHG  1   5   1
M  END
$$$$

     RDKit          3D

 14 14  0  0  0  0  0  0  0  0999 V2000
   -0.0593    2.6325   -0.8319 C   0  0  0  0  0  0  0  0  0  0  0  0
   -0.0575    2.4973    0.5514 C   0  0  0  0  0  0  0  0  0  0  0  0
   -0.0125    3.4936    1.5195 C   0  0  0  0  0  0  0  0  0  0  0  0
    0.0420    4.8713    1.3433 C   0  0  0  0  0  0  0  0  0  0  0  0
    0.0648    5.5928    0.1556 C   0  0  0  0  0  3  0  0  0  0  0  0
    0.0389    5.1149   -1.1493 C   0  0  0  0  0  0  0  0  0  0  0  0
   -0.0164    3.7975   -1.5888 C   0  0  0  0  0  0  0  0  0  0  0  0
   -0.0994    1.7073   -1.3948 H   0  0  0  0  0  0  0  0  0  0  0  0
   -0.0965    1.4805    0.9246 H   0  0  0  0  0  0  0  0  0  0  0  0
   -0.0209    3.1510    2.5477 H   0  0  0  0  0  0  0  0  0  0  0  0
    0.0704    5.4608    2.2523 H   0  0  0  0  0  0  0  0  0  0  0  0
    0.1087    6.6706    0.2609 H   0  0  0  0  0  0  0  0  0  0  0  0
    0.0651    5.8694   -1.9270 H   0  0  0  0  0  0  0  0  0  0  0  0
   -0.0275    3.6605   -2.6638 H   0  0  0  0  0  0  0  0  0  0  0  0
  1  2  2  0
  2  3  1  0
  3  4  2  0
  4  5  1  0
  5  6  1  0
  6  7  2  0
  7  1  1  0
  1  8  1  0
  2  9  1  0
  3 10  1  0
  4 11  1  0
  5 12  1  0
  6 13  1  0
  7 14  1  0
M  CHG  1   5   1
M  END
$$$$

     RDKit          3D

 14 14  0  0  0  0  0  0  0  0999 V2000
   -0.0593   -1.0328    1.2228 C   0  0  0  0  0  0  0  0  0  0  0  0
   -0.0575    0.3131    1.5698 C   0  0  0  0  0  0  0  0  0  0  0  0
   -0.0125    1.4232    0.7347 C   0  0  0  0  0  0  0  0  0  0  0  0
    0.0420    1.4617   -0.6536 C   0  0  0  0  0  0  0  0  0  0  0  0
    0.0648    0.3995   -1.5497 C   0  0  0  0  0  3  0  0  0  0  0  0
    0.0389   -0.9636   -1.2789 C   0  0  0  0  0  0  0  0  0  0  0  0
   -0.0164   -1.6010   -0.0450 C   0  0  0  0  0  0  0  0  0  0  0  0
   -0.0994   -1.7317    2.0502 H   0  0  0  0  0  0  0  0  0  0  0  0
   -0.0965    0.5249    2.6319 H   0  0  0  0  0  0  0  0  0  0  0  0
   -0.0209    2.3862    1.2318 H   0  0  0  0  0  0  0  0  0  0  0  0
    0.0704    2.4507   -1.0959 H   0  0  0  0  0  0  0  0  0  0  0  0
    0.1087    0.6697   -2.5984 H   0  0  0  0  0  0  0  0  0  0  0  0
    0.0651   -1.6155   -2.1442 H   0  0  0  0  0  0  0  0  0  0  0  0
   -0.0275   -2.6843   -0.0754 H   0  0  0  0  0  0  0  0  0  0  0  0
  1  2  2  0
  2  3  1  0
  3  4  2  0
  4  5  1  0
  5  6  1  0
  6  7  2  0
  7  1  1  0
  1  8  1  0
  2  9  1  0
  3 10  1  0
  4 11  1  0
  5 12  1  0
  6 13  1  0
  7 14  1  0
M  CHG  1   5   1
M  END
$$$$

     RDKit          3D

 14 14  0  0  0  0  0  0  0  0999 V2000
   -0.0593    0.3005    1.2228 C   0  0  0  0  0  0  0  0  0  0  0  0
   -0.0575    1.6464    1.5698 C   0  0  0  0  0  0  0  0  0  0  0  0
   -0.0125    2.7565    0.7347 C   0  0  0  0  0  0  0  0  0  0  0  0
    0.0420    2.7950   -0.6536 C   0  0  0  0  0  0  0  0  0  0  0  0
    0.0648    1.7328   -1.5497 C   0  0  0  0  0  3  0  0  0  0  0  0
    0.0389    0.3698   -1.2789 C   0  0  0  0  0  0  0  0  0  0  0  0
   -0.0164   -0.2676   -0.0450 C   0  0  0  0  0  0  0  0  0  0  0  0
   -0.0994   -0.3984    2.0502 H   0  0  0  0  0  0  0  0  0  0  0  0
   -0.0965    1.8582    2.6319 H   0  0  0  0  0  0  0  0  0  0  0  0
   -0.0209    3.7196    1.2318 H   0  0  0  0  0  0  0  0  0  0  0  0
    0.0704    3.7840   -1.0959 H   0  0  0  0  0  0  0  0  0  0  0  0
    0.1087    2.0031   -2.5984 H   0  0  0  0  0  0  0  0  0  0  0  0
    0.0651   -0.2822   -2.1442 H   0  0  0  0  0  0  0  0  0  0  0  0
   -0.0275   -1.3510   -0.0754 H   0  0  0  0  0  0  0  0  0  0  0  0
  1  2  2  0
  2  3  1  0
  3  4  2  0
  4  5  1  0
  5  6  1  0
  6  7  2  0
  7  1  1  0
  1  8  1  0
  2  9  1  0
  3 10  1  0
  4 11  1  0
  5 12  1  0
  6 13  1  0
  7 14  1  0
M  CHG  1   5   1
M  END
$$$$

     RDKit          3D

 14 14  0  0  0  0  0  0  0  0999 V2000
   -0.0593    1.6338    1.2228 C   0  0  0  0  0  0  0  0  0  0  0  0
   -0.0575    2.9797    1.5698 C   0  0  0  0  0  0  0  0  0  0  0  0
   -0.0125    4.0899    0.7347 C   0  0  0  0  0  0  0  0  0  0  0  0
    0.0420    4.1283   -0.6536 C   0  0  0  0  0  0  0  0  0  0  0  0
    0.0648    3.0661   -1.5497 C   0  0  0  0  0  3  0  0  0  0  0  0
    0.0389    1.7031   -1.2789 C   0  0  0  0  0  0  0  0  0  0  0  0
   -0.0164    1.0657   -0.0450 C   0  0  0  0  0  0  0  0  0  0  0  0
   -0.0994    0.9349    2.0502 H   0  0  0  0  0  0  0  0  0  0  0  0
   -0.0965    3.1915    2.6319 H   0  0  0  0  0  0  0  0  0  0  0  0
   -0.0209    5.0529    1.2318 H   0  0  0  0  0  0  0  0  0  0  0  0
    0.0704    5.1174   -1.0959 H   0  0  0  0  0  0  0  0  0  0  0  0
    0.1087    3.3364   -2.5984 H   0  0  0  0  0  0  0  0  0  0  0  0
    0.0651    1.0511   -2.1442 H   0  0  0  0  0  0  0  0  0  0  0  0
   -0.0275   -0.0176   -0.0754 H   0  0  0  0  0  0  0  0  0  0  0  0
  1  2  2  0
  2  3  1  0
  3  4  2  0
  4  5  1  0
  5  6  1  0
  6  7  2  0
  7  1  1  0
  1  8  1  0
  2  9  1  0
  3 10  1  0
  4 11  1  0
  5 12  1  0
  6 13  1  0
  7 14  1  0
M  CHG  1   5   1
M  END
$$$$

     RDKit          3D

 14 14  0  0  0  0  0  0  0  0999 V2000
   -0.0593    2.9672    1.2228 C   0  0  0  0  0  0  0  0  0  0  0  0
   -0.0575    4.3131    1.5698 C   0  0  0  0  0  0  0  0  0  0  0  0
   -0.0125    5.4232    0.7347 C   0  0  0  0  0  0  0  0  0  0  0  0
    0.0420    5.4617   -0.6536 C   0  0  0  0  0  0  0  0  0  0  0  0
    0.0648    4.3995   -1.5497 C   0  0  0  0  0  3  0  0  0  0  0  0
    0.0389    3.0364   -1.2789 C   0  0  0  0  0  0  0  0  0  0  0  0
   -0.0164    2.3990   -0.0450 C   0  0  0  0  0  0  0  0  0  0  0  0
   -0.0994    2.2683    2.0502 H   0  0  0  0  0  0  0  0  0  0  0  0
   -0.0965    4.5249    2.6319 H   0  0  0  0  0  0  0  0  0  0  0  0
   -0.0209    6.3862    1.2318 H   0  0  0  0  0  0  0  0  0  0  0  0
    0.0704    6.4507   -1.0959 H   0  0  0  0  0  0  0  0  0  0  0  0
    0.1087    4.6697   -2.5984 H   0  0  0  0  0  0  0  0  0  0  0  0
    0.0651    2.3845   -2.1442 H   0  0  0  0  0  0  0  0  0  0  0  0
   -0.0275    1.3157   -0.0754 H   0  0  0  0  0  0  0  0  0  0  0  0
  1  2  2  0
  2  3  1  0
  3  4  2  0
  4  5  1  0
  5  6  1  0
  6  7  2  0
  7  1  1  0
  1  8  1  0
  2  9  1  0
  3 10  1  0
  4 11  1  0
  5 12  1  0
  6 13  1  0
  7 14  1  0
M  CHG  1   5   1
M  END
$$$$

     RDKit          3D

 14 14  0  0  0  0  0  0  0  0999 V2000
   -0.0593    1.0488    1.2091 C   0  0  0  0  0  0  0  0  0  0  0  0
   -0.0575    1.5993   -0.0672 C   0  0  0  0  0  0  0  0  0  0  0  0
   -0.0125    0.9454   -1.2928 C   0  0  0  0  0  0  0  0  0  0  0  0
    0.0420   -0.4203   -1.5450 C   0  0  0  0  0  0  0  0  0  0  0  0
    0.0648   -1.4696   -0.6337 C   0  0  0  0  0  3  0  0  0  0  0  0
    0.0389   -1.4122    0.7548 C   0  0  0  0  0  0  0  0  0  0  0  0
   -0.0164   -0.2914    1.5749 C   0  0  0  0  0  0  0  0  0  0  0  0
   -0.0994    1.7585    2.0272 H   0  0  0  0  0  0  0  0  0  0  0  0
   -0.0965    2.6814   -0.1126 H   0  0  0  0  0  0  0  0  0  0  0  0
   -0.0209    1.5851   -2.1677 H   0  0  0  0  0  0  0  0  0  0  0  0
    0.0704   -0.7048   -2.5904 H   0  0  0  0  0  0  0  0  0  0  0  0
    0.1087   -2.4640   -1.0625 H   0  0  0  0  0  0  0  0  0  0  0  0
    0.0651   -2.3678    1.2655 H   0  0  0  0  0  0  0  0  0  0  0  0
   -0.0275   -0.4886    2.6405 H   0  0  0  0  0  0  0  0  0  0  0  0
  1  2  2  0
  2  3  1  0
  3  4  2  0
  4  5  1  0
  5  6  1  0
  6  7  2  0
  7  1  1  0
  1  8  1  0
  2  9  1  0
  3 10  1  0
  4 11  1  0
  5 12  1  0
  6 13  1  0
  7 14  1  0
M  CHG  1   5   1
M  END
$$$$

     RDKit          3D

 14 14  0  0  0  0  0  0  0  0999 V2000
   -0.0593    2.3821    1.2091 C   0  0  0  0  0  0  0  0  0  0  0  0
   -0.0575    2.9326   -0.0672 C   0  0  0  0  0  0  0  0  0  0  0  0
   -0.0125    2.2788   -1.2928 C   0  0  0  0  0  0  0  0  0  0  0  0
    0.0420    0.9130   -1.5450 C   0  0  0  0  0  0  0  0  0  0  0  0
    0.0648   -0.1362   -0.6337 C   0  0  0  0  0  3  0  0  0  0  0  0
    0.0389   -0.0789    0.7548 C   0  0  0  0  0  0  0  0  0  0  0  0
   -0.0164    1.0419    1.5749 C   0  0  0  0  0  0  0  0  0  0  0  0
   -0.0994    3.0918    2.0272 H   0  0  0  0  0  0  0  0  0  0  0  0
   -0.0965    4.0147   -0.1126 H   0  0  0  0  0  0  0  0  0  0  0  0
   -0.0209    2.9185   -2.1677 H   0  0  0  0  0  0  0  0  0  0  0  0
    0.0704    0.6286   -2.5904 H   0  0  0  0  0  0  0  0  0  0  0  0
    0.1087   -1.1306   -1.0625 H   0  0  0  0  0  0  0  0  0  0  0  0
    0.0651   -1.0344    1.2655 H   0  0  0  0  0  0  0  0  0  0  0  0
   -0.0275    0.8448    2.6405 H   0  0  0  0  0  0  0  0  0  0  0  0
  1  2  2  0
  2  3  1  0
  3  4  2  0
  4  5  1  0
  5  6  1  0
  6  7  2  0
  7  1  1  0
  1  8  1  0
  2  9  1  0
  3 10  1  0
  4 11  1  0
  5 12  1  0
  6 13  1  0
  7 14  1  0
M  CHG  1   5   1
M  END
$$$$

     RDKit          3D

 14 14  0  0  0  0  0  0  0  0999 V2000
   -0.0593    3.7155    1.2091 C   0  0  0  0  0  0  0  0  0  0  0  0
   -0.0575    4.2659   -0.0672 C   0  0  0  0  0  0  0  0  0  0  0  0
   -0.0125    3.6121   -1.2928 C   0  0  0  0  0  0  0  0  0  0  0  0
    0.0420    2.2463   -1.5450 C   0  0  0  0  0  0  0  0  0  0  0  0
    0.0648    1.1971   -0.6337 C   0  0  0  0  0  3  0  0  0  0  0  0
    0.0389    1.2545    0.7548 C   0  0  0  0  0  0  0  0  0  0  0  0
   -0.0164    2.3753    1.5749 C   0  0  0  0  0  0  0  0  0  0  0  0
   -0.0994    4.4252    2.0272 H   0  0  0  0  0  0  0  0  0  0  0  0
   -0.0965    5.3481   -0.1126 H   0  0  0  0  0  0  0  0  0  0  0  0
   -0.0209    4.2518   -2.1677 H   0  0  0  0  0  0  0  0  0  0  0  0
    0.0704    1.9619   -2.5904 H   0  0  0  0  0  0  0  0  0  0  0  0
    0.1087    0.2027   -1.0625 H   0  0  0  0  0  0  0  0  0  0  0  0
    0.0651    0.2989    1.2655 H   0  0  0  0  0  0  0  0  0  0  0  0
   -0.0275    2.1781    2.6405 H   0  0  0  0  0  0  0  0  0  0  0  0
  1  2  2  0
  2  3  1  0
  3  4  2  0
  4  5  1  0
  5  6  1  0
  6  7  2  0
  7  1  1  0
  1  8  1  0
  2  9  1  0
  3 10  1  0
  4 11  1  0
  5 12  1  0
  6 13  1  0
  7 14  1  0
M  CHG  1   5   1
M  END
$$$$

     RDKit          3D

 14 14  0  0  0  0  0  0  0  0999 V2000
   -0.0593    5.0488    1.2091 C   0  0  0  0  0  0  0  0  0  0  0  0
   -0.0575    5.5993   -0.0672 C   0  0  0  0  0  0  0  0  0  0  0  0
   -0.0125    4.9454   -1.2928 C   0  0  0  0  0  0  0  0  0  0  0  0
    0.0420    3.5797   -1.5450 C   0  0  0  0  0  0  0  0  0  0  0  0
    0.0648    2.5304   -0.6337 C   0  0  0  0  0  3  0  0  0  0  0  0
    0.0389    2.5878    0.7548 C   0  0  0  0  0  0  0  0  0  0  0  0
   -0.0164    3.7086    1.5749 C   0  0  0  0  0  0  0  0  0  0  0  0
   -0.0994    5.7585    2.0272 H   0  0  0  0  0  0  0  0  0  0  0  0
   -0.0965    6.6814   -0.1126 H   0  0  0  0  0  0  0  0  0  0  0  0
   -0.0209    5.5851   -2.1677 H   0  0  0  0  0  0  0  0  0  0  0  0
    0.0704    3.2952   -2.5904 H   0  0  0  0  0  0  0  0  0  0  0  0
    0.1087    1.5360   -1.0625 H   0  0  0  0  0  0  0  0  0  0  0  0
    0.0651    1.6322    1.2655 H   0  0  0  0  0  0  0  0  0  0  0  0
   -0.0275    3.5114    2.6405 H   0  0  0  0  0  0  0  0  0  0  0  0
  1  2  2  0
  2  3  1  0
  3  4  2  0
  4  5  1  0
  5  6  1  0
  6  7  2  0
  7  1  1  0
  1  8  1  0
  2  9  1  0
  3 10  1  0
  4 11  1  0
  5 12  1  0
  6 13  1  0
  7 14  1  0
M  CHG  1   5   1
M  END
$$$$

     RDKit          3D

 14 14  0  0  0  0  0  0  0  0999 V2000
   -0.0593    1.3564   -0.8498 C   0  0  0  0  0  0  0  0  0  0  0  0
   -0.0575    0.1803   -1.5905 C   0  0  0  0  0  0  0  0  0  0  0  0
   -0.0125   -1.1315   -1.1335 C   0  0  0  0  0  0  0  0  0  0  0  0
    0.0420   -1.5913    0.1770 C   0  0  0  0  0  0  0  0  0  0  0  0
    0.0648   -0.8528    1.3542 C   0  0  0  0  0  3  0  0  0  0  0  0
    0.0389    0.5279    1.5117 C   0  0  0  0  0  0  0  0  0  0  0  0
   -0.0164    1.5111    0.5308 C   0  0  0  0  0  0  0  0  0  0  0  0
   -0.0994    2.2742   -1.4248 H   0  0  0  0  0  0  0  0  0  0  0  0
   -0.0965    0.3023   -2.6667 H   0  0  0  0  0  0  0  0  0  0  0  0
   -0.0209   -1.8972   -1.9005 H   0  0  0  0  0  0  0  0  0  0  0  0
    0.0704   -2.6681    0.2967 H   0  0  0  0  0  0  0  0  0  0  0  0
    0.1087   -1.4299    2.2706 H   0  0  0  0  0  0  0  0  0  0  0  0
    0.0651    0.8851    2.5346 H   0  0  0  0  0  0  0  0  0  0  0  0
   -0.0275    2.5336    0.8900 H   0  0  0  0  0  0  0  0  0  0  0  0
  1  2  2  0
  2  3  1  0
  3  4  2  0
  4  5  1  0
  5  6  1  0
  6  7  2  0
  7  1  1  0
  1  8  1  0
  2  9  1  0
  3 10  1  0
  4 11  1  0
  5 12  1  0
  6 13  1  0
  7 14  1  0
M  CHG  1   5   1
M  END
$$$$

     RDKit          3D

 14 14  0  0  0  0  0  0  0  0999 V2000
   -0.0593    2.6897   -0.8498 C   0  0  0  0  0  0  0  0  0  0  0  0
   -0.0575    1.5137   -1.5905 C   0  0  0  0  0  0  0  0  0  0  0  0
   -0.0125    0.2018   -1.1335 C   0  0  0  0  0  0  0  0  0  0  0  0
    0.0420   -0.2580    0.1770 C   0  0  0  0  0  0  0  0  0  0  0  0
    0.0648    0.4805    1.3542 C   0  0  0  0  0  3  0  0  0  0  0  0
    0.0389    1.8612    1.5117 C   0  0  0  0  0  0  0  0  0  0  0  0
   -0.0164    2.8444    0.5308 C   0  0  0  0  0  0  0  0  0  0  0  0
   -0.0994    3.6076   -1.4248 H   0  0  0  0  0  0  0  0  0  0  0  0
   -0.0965    1.6357   -2.6667 H   0  0  0  0  0  0  0  0  0  0  0  0
   -0.0209   -0.5639   -1.9005 H   0  0  0  0  0  0  0  0  0  0  0  0
    0.0704   -1.3348    0.2967 H   0  0  0  0  0  0  0  0  0  0  0  0
    0.1087   -0.0966    2.2706 H   0  0  0  0  0  0  0  0  0  0  0  0
    0.0651    2.2184    2.5346 H   0  0  0  0  0  0  0  0  0  0  0  0
   -0.0275    3.8669    0.8900 H   0  0  0  0  0  0  0  0  0  0  0  0
  1  2  2  0
  2  3  1  0
  3  4  2  0
  4  5  1  0
  5  6  1  0
  6  7  2  0
  7  1  1  0
  1  8  1  0
  2  9  1  0
  3 10  1  0
  4 11  1  0
  5 12  1  0
  6 13  1  0
  7 14  1  0
M  CHG  1   5   1
M  END
$$$$

     RDKit          3D

 14 14  0  0  0  0  0  0  0  0999 V2000
   -0.0593    4.0231   -0.8498 C   0  0  0  0  0  0  0  0  0  0  0  0
   -0.0575    2.8470   -1.5905 C   0  0  0  0  0  0  0  0  0  0  0  0
   -0.0125    1.5351   -1.1335 C   0  0  0  0  0  0  0  0  0  0  0  0
    0.0420    1.0753    0.1770 C   0  0  0  0  0  0  0  0  0  0  0  0
    0.0648    1.8138    1.3542 C   0  0  0  0  0  3  0  0  0  0  0  0
    0.0389    3.1946    1.5117 C   0  0  0  0  0  0  0  0  0  0  0  0
   -0.0164    4.1778    0.5308 C   0  0  0  0  0  0  0  0  0  0  0  0
   -0.0994    4.9409   -1.4248 H   0  0  0  0  0  0  0  0  0  0  0  0
   -0.0965    2.9690   -2.6667 H   0  0  0  0  0  0  0  0  0  0  0  0
   -0.0209    0.7695   -1.9005 H   0  0  0  0  0  0  0  0  0  0  0  0
    0.0704   -0.0015    0.2967 H   0  0  0  0  0  0  0  0  0  0  0  0
    0.1087    1.2368    2.2706 H   0  0  0  0  0  0  0  0  0  0  0  0
    0.0651    3.5518    2.5346 H   0  0  0  0  0  0  0  0  0  0  0  0
   -0.0275    5.2002    0.8900 H   0  0  0  0  0  0  0  0  0  0  0  0
  1  2  2  0
  2  3  1  0
  3  4  2  0
  4  5  1  0
  5  6  1  0
  6  7  2  0
  7  1  1  0
  1  8  1  0
  2  9  1  0
  3 10  1  0
  4 11  1  0
  5 12  1  0
  6 13  1  0
  7 14  1  0
M  CHG  1   5   1
M  END
$$$$

     RDKit          3D

 14 14  0  0  0  0  0  0  0  0999 V2000
   -0.0593    5.3564   -0.8498 C   0  0  0  0  0  0  0  0  0  0  0  0
   -0.0575    4.1803   -1.5905 C   0  0  0  0  0  0  0  0  0  0  0  0
   -0.0125    2.8685   -1.1335 C   0  0  0  0  0  0  0  0  0  0  0  0
    0.0420    2.4087    0.1770 C   0  0  0  0  0  0  0  0  0  0  0  0
    0.0648    3.1472    1.3542 C   0  0  0  0  0  3  0  0  0  0  0  0
    0.0389    4.5279    1.5117 C   0  0  0  0  0  0  0  0  0  0  0  0
   -0.0164    5.5111    0.5308 C   0  0  0  0  0  0  0  0  0  0  0  0
   -0.0994    6.2742   -1.4248 H   0  0  0  0  0  0  0  0  0  0  0  0
   -0.0965    4.3023   -2.6667 H   0  0  0  0  0  0  0  0  0  0  0  0
   -0.0209    2.1028   -1.9005 H   0  0  0  0  0  0  0  0  0  0  0  0
    0.0704    1.3319    0.2967 H   0  0  0  0  0  0  0  0  0  0  0  0
    0.1087    2.5701    2.2706 H   0  0  0  0  0  0  0  0  0  0  0  0
    0.0651    4.8851    2.5346 H   0  0  0  0  0  0  0  0  0  0  0  0
   -0.0275    6.5336    0.8900 H   0  0  0  0  0  0  0  0  0  0  0  0
  1  2  2  0
  2  3  1  0
  3  4  2  0
  4  5  1  0
  5  6  1  0
  6  7  2  0
  7  1  1  0
  1  8  1  0
  2  9  1  0
  3 10  1  0
  4 11  1  0
  5 12  1  0
  6 13  1  0
  7 14  1  0
M  CHG  1   5   1
M  END
$$$$
