 energy: -269.328089011150 gnorm: 0.000291161028 xtb: 6.6.0 (2ccbbd7)
     RDKit          3D

140161  0  0  0  0  0  0  0  0999 V2000
    1.5355   -0.6582   -5.1831 N   0  0  0  0  0  0  0  0  0  0  0  0
    1.3086    0.6311   -5.7912 C   0  0  1  0  0  0  0  0  0  0  0  0
   -0.2339    0.6940   -5.9401 C   0  0  1  0  0  0  0  0  0  0  0  0
   -0.6718   -0.5529   -5.3600 N   0  0  0  0  0  0  0  0  0  0  0  0
    0.3697   -1.3312   -4.9245 C   0  0  0  0  0  0  0  0  0  0  0  0
    1.5989    1.7484   -4.9275 N   0  0  0  0  0  0  0  0  0  0  0  0
    0.4755    2.4251   -4.5380 C   0  0  0  0  0  0  0  0  0  0  0  0
   -0.5999    1.8514   -5.1642 N   0  0  0  0  0  0  0  0  0  0  0  0
    0.2761   -2.4441   -4.4542 O   0  0  0  0  0  0  0  0  0  0  0  0
    0.4407    3.3977   -3.8169 O   0  0  0  0  0  0  0  0  0  0  0  0
   -2.8987   -0.5230   -4.4346 N   0  0  0  0  0  0  0  0  0  0  0  0
   -3.6306    0.7176   -4.5630 C   0  0  1  0  0  0  0  0  0  0  0  0
   -4.6287    0.6611   -3.3771 C   0  0  1  0  0  0  0  0  0  0  0  0
   -4.4027   -0.6419   -2.8070 N   0  0  0  0  0  0  0  0  0  0  0  0
   -3.3750   -1.3114   -3.4194 C   0  0  0  0  0  0  0  0  0  0  0  0
   -2.8467    1.8922   -4.2837 N   0  0  0  0  0  0  0  0  0  0  0  0
   -3.1628    2.4655   -3.0803 C   0  0  0  0  0  0  0  0  0  0  0  0
   -4.1933    1.7491   -2.5326 N   0  0  0  0  0  0  0  0  0  0  0  0
   -2.9861   -2.4247   -3.1394 O   0  0  0  0  0  0  0  0  0  0  0  0
   -2.6631    3.4630   -2.6103 O   0  0  0  0  0  0  0  0  0  0  0  0
    5.1681   -1.5758    0.2437 N   0  0  0  0  0  0  0  0  0  0  0  0
    5.7172   -0.4404    0.9441 C   0  0  2  0  0  0  0  0  0  0  0  0
    5.2854   -0.6813    2.4139 C   0  0  2  0  0  0  0  0  0  0  0  0
    4.5277   -1.9074    2.3390 N   0  0  0  0  0  0  0  0  0  0  0  0
    4.4642   -2.4151    1.0679 C   0  0  0  0  0  0  0  0  0  0  0  0
    5.0855    0.8127    0.6159 N   0  0  0  0  0  0  0  0  0  0  0  0
    4.3364    1.3143    1.6480 C   0  0  0  0  0  0  0  0  0  0  0  0
    4.4903    0.4786    2.7235 N   0  0  0  0  0  0  0  0  0  0  0  0
    3.9472   -3.4627    0.7443 O   0  0  0  0  0  0  0  0  0  0  0  0
    3.7062    2.3482    1.6348 O   0  0  0  0  0  0  0  0  0  0  0  0
   -1.5781   -1.9819    4.6871 N   0  0  0  0  0  0  0  0  0  0  0  0
   -2.2016   -0.8913    5.4042 C   0  0  2  0  0  0  0  0  0  0  0  0
   -3.4955   -0.6291    4.5898 C   0  0  2  0  0  0  0  0  0  0  0  0
   -3.4857   -1.6710    3.5957 N   0  0  0  0  0  0  0  0  0  0  0  0
   -2.3499   -2.4367    3.6492 C   0  0  0  0  0  0  0  0  0  0  0  0
   -1.4896    0.3560    5.3092 N   0  0  0  0  0  0  0  0  0  0  0  0
   -2.1108    1.2593    4.4874 C   0  0  0  0  0  0  0  0  0  0  0  0
   -3.2781    0.6929    4.0496 N   0  0  0  0  0  0  0  0  0  0  0  0
   -2.0944   -3.3786    2.9305 O   0  0  0  0  0  0  0  0  0  0  0  0
   -1.7289    2.3811    4.2401 O   0  0  0  0  0  0  0  0  0  0  0  0
   -5.1443   -0.9696   -0.5333 N   0  0  0  0  0  0  0  0  0  0  0  0
   -5.6027    0.2571    0.0688 C   0  0  1  0  0  0  0  0  0  0  0  0
   -5.3932    0.0102    1.5844 C   0  0  1  0  0  0  0  0  0  0  0  0
   -4.8395   -1.3201    1.6287 N   0  0  0  0  0  0  0  0  0  0  0  0
   -4.6717   -1.8691    0.3852 C   0  0  0  0  0  0  0  0  0  0  0  0
   -4.7482    1.3850   -0.2085 N   0  0  0  0  0  0  0  0  0  0  0  0
   -4.0457    1.7934    0.8972 C   0  0  0  0  0  0  0  0  0  0  0  0
   -4.4532    1.0347    1.9652 N   0  0  0  0  0  0  0  0  0  0  0  0
   -4.2496   -2.9793    0.1458 O   0  0  0  0  0  0  0  0  0  0  0  0
   -3.2375    2.6952    0.9325 O   0  0  0  0  0  0  0  0  0  0  0  0
    4.0773   -2.6413    3.4905 C   0  0  2  0  0  0  0  0  0  0  0  0
   -1.8974    2.4727   -5.1933 C   0  0  2  0  0  0  0  0  0  0  0  0
    4.1320    0.8700    4.0593 C   0  0  2  0  0  0  0  0  0  0  0  0
   -2.0195   -1.0440   -5.4484 C   0  0  2  0  0  0  0  0  0  0  0  0
    3.6070   -0.9147   -3.9575 N   0  0  0  0  0  0  0  0  0  0  0  0
    4.3915    0.2953   -3.8875 C   0  0  2  0  0  0  0  0  0  0  0  0
    5.2168    0.1077   -2.5882 C   0  0  2  0  0  0  0  0  0  0  0  0
    4.8210   -1.1998   -2.1250 N   0  0  0  0  0  0  0  0  0  0  0  0
    3.8677   -1.7761   -2.9242 C   0  0  0  0  0  0  0  0  0  0  0  0
    3.6164    1.4793   -3.6241 N   0  0  0  0  0  0  0  0  0  0  0  0
    3.7980    1.9561   -2.3522 C   0  0  0  0  0  0  0  0  0  0  0  0
    4.7616    1.1893   -1.7510 N   0  0  0  0  0  0  0  0  0  0  0  0
    3.3972   -2.8847   -2.7854 O   0  0  0  0  0  0  0  0  0  0  0  0
    3.2552    2.9253   -1.8706 O   0  0  0  0  0  0  0  0  0  0  0  0
    2.8237   -1.2934   -5.1025 C   0  0  2  0  0  0  0  0  0  0  0  0
    2.9213    2.2263   -4.6361 C   0  0  2  0  0  0  0  0  0  0  0  0
    5.4178    1.5972   -0.5406 C   0  0  1  0  0  0  0  0  0  0  0  0
    5.5200   -1.9328   -1.1041 C   0  0  1  0  0  0  0  0  0  0  0  0
   -5.3239   -1.2991   -1.9192 C   0  0  2  0  0  0  0  0  0  0  0  0
   -4.9036    2.2140   -1.3747 C   0  0  2  0  0  0  0  0  0  0  0  0
   -4.6429   -2.0674    2.8388 C   0  0  1  0  0  0  0  0  0  0  0  0
   -4.2617    1.4512    3.3298 C   0  0  1  0  0  0  0  0  0  0  0  0
    0.9117    0.1605    5.4500 N   0  0  0  0  0  0  0  0  0  0  0  0
    1.4432   -1.1557    5.6916 C   0  0  2  0  0  0  0  0  0  0  0  0
    2.8759   -1.0827    5.1022 C   0  0  2  0  0  0  0  0  0  0  0  0
    2.9369    0.2528    4.5612 N   0  0  0  0  0  0  0  0  0  0  0  0
    1.7739    0.9517    4.7372 C   0  0  0  0  0  0  0  0  0  0  0  0
    0.8157   -2.1878    4.9006 N   0  0  0  0  0  0  0  0  0  0  0  0
    1.6678   -2.7463    3.9830 C   0  0  0  0  0  0  0  0  0  0  0  0
    2.8830   -2.1233    4.1026 N   0  0  0  0  0  0  0  0  0  0  0  0
    1.5638    2.0905    4.3822 O   0  0  0  0  0  0  0  0  0  0  0  0
    1.4087   -3.6715    3.2445 O   0  0  0  0  0  0  0  0  0  0  0  0
   -0.2953    0.6717    6.0432 C   0  0  2  0  0  0  0  0  0  0  0  0
   -0.4728   -2.7493    5.1995 C   0  0  2  0  0  0  0  0  0  0  0  0
    1.8767    0.7144   -6.7269 H   0  0  0  0  0  0  0  0  0  0  0  0
   -0.6044    0.7880   -6.9691 H   0  0  0  0  0  0  0  0  0  0  0  0
   -4.0855    0.7906   -5.5594 H   0  0  0  0  0  0  0  0  0  0  0  0
   -5.6861    0.7831   -3.6463 H   0  0  0  0  0  0  0  0  0  0  0  0
    6.8004   -0.3784    0.7743 H   0  0  0  0  0  0  0  0  0  0  0  0
    6.1064   -0.7865    3.1356 H   0  0  0  0  0  0  0  0  0  0  0  0
   -2.3538   -1.1644    6.4565 H   0  0  0  0  0  0  0  0  0  0  0  0
   -4.4287   -0.6594    5.1672 H   0  0  0  0  0  0  0  0  0  0  0  0
   -6.6351    0.4706   -0.2370 H   0  0  0  0  0  0  0  0  0  0  0  0
   -6.2985    0.0680    2.2023 H   0  0  0  0  0  0  0  0  0  0  0  0
    4.8783   -2.6619    4.2384 H   0  0  0  0  0  0  0  0  0  0  0  0
    3.8412   -3.6518    3.1373 H   0  0  0  0  0  0  0  0  0  0  0  0
   -2.2962    2.4214   -6.2109 H   0  0  0  0  0  0  0  0  0  0  0  0
   -1.7567    3.5118   -4.8748 H   0  0  0  0  0  0  0  0  0  0  0  0
    3.9336    1.9477    4.0315 H   0  0  0  0  0  0  0  0  0  0  0  0
    4.9659    0.6387    4.7316 H   0  0  0  0  0  0  0  0  0  0  0  0
   -1.9690   -2.1284   -5.2953 H   0  0  0  0  0  0  0  0  0  0  0  0
   -2.4259   -0.8038   -6.4370 H   0  0  0  0  0  0  0  0  0  0  0  0
    4.9800    0.4195   -4.8063 H   0  0  0  0  0  0  0  0  0  0  0  0
    6.3072    0.1520   -2.7107 H   0  0  0  0  0  0  0  0  0  0  0  0
    3.3888   -1.0671   -6.0140 H   0  0  0  0  0  0  0  0  0  0  0  0
    2.6414   -2.3702   -5.0083 H   0  0  0  0  0  0  0  0  0  0  0  0
    2.8030    3.2458   -4.2513 H   0  0  0  0  0  0  0  0  0  0  0  0
    3.5172    2.2168   -5.5553 H   0  0  0  0  0  0  0  0  0  0  0  0
    5.0812    2.6196   -0.3332 H   0  0  0  0  0  0  0  0  0  0  0  0
    6.5031    1.5614   -0.6939 H   0  0  0  0  0  0  0  0  0  0  0  0
    6.5988   -1.7901   -1.2404 H   0  0  0  0  0  0  0  0  0  0  0  0
    5.2426   -2.9858   -1.2293 H   0  0  0  0  0  0  0  0  0  0  0  0
   -5.1409   -2.3764   -2.0054 H   0  0  0  0  0  0  0  0  0  0  0  0
   -6.3475   -1.0493   -2.2209 H   0  0  0  0  0  0  0  0  0  0  0  0
   -5.9720    2.2933   -1.6092 H   0  0  0  0  0  0  0  0  0  0  0  0
   -4.4814    3.1965   -1.1341 H   0  0  0  0  0  0  0  0  0  0  0  0
   -4.4886   -3.1091    2.5349 H   0  0  0  0  0  0  0  0  0  0  0  0
   -5.5314   -1.9707    3.4729 H   0  0  0  0  0  0  0  0  0  0  0  0
   -5.2239    1.3914    3.8523 H   0  0  0  0  0  0  0  0  0  0  0  0
   -3.8913    2.4826    3.3072 H   0  0  0  0  0  0  0  0  0  0  0  0
    1.3849   -1.4038    6.7594 H   0  0  0  0  0  0  0  0  0  0  0  0
    3.6905   -1.2416    5.8208 H   0  0  0  0  0  0  0  0  0  0  0  0
   -0.3850    0.2836    7.0622 H   0  0  0  0  0  0  0  0  0  0  0  0
   -0.2105    1.7643    6.0414 H   0  0  0  0  0  0  0  0  0  0  0  0
   -0.5100   -3.7270    4.7047 H   0  0  0  0  0  0  0  0  0  0  0  0
   -0.5781   -2.8526    6.2851 H   0  0  0  0  0  0  0  0  0  0  0  0
   -0.4431    2.1357   -0.8929 C   0  0  0  0  0  0  0  0  0  0  0  0
   -0.9582    0.9197   -1.3311 C   0  0  0  0  0  0  0  0  0  0  0  0
   -1.3229   -0.1962   -0.5884 C   0  0  0  0  0  0  0  0  0  0  0  0
   -1.1679   -0.4088    0.7771 C   0  0  0  0  0  0  0  0  0  0  0  0
   -0.6156    0.4464    1.7222 C   0  0  0  0  0  0  0  0  0  0  0  0
   -0.1724    1.7562    1.5682 C   0  0  0  0  0  0  0  0  0  0  0  0
   -0.1265    2.5187    0.4061 C   0  0  0  0  0  0  0  0  0  0  0  0
   -0.2725    2.8837   -1.6609 H   0  0  0  0  0  0  0  0  0  0  0  0
   -1.1134    0.8367   -2.4001 H   0  0  0  0  0  0  0  0  0  0  0  0
   -1.7531   -1.0253   -1.1407 H   0  0  0  0  0  0  0  0  0  0  0  0
   -1.4931   -1.3803    1.1350 H   0  0  0  0  0  0  0  0  0  0  0  0
   -0.5365    0.0419    2.7240 H   0  0  0  0  0  0  0  0  0  0  0  0
    0.1802    2.2470    2.4700 H   0  0  0  0  0  0  0  0  0  0  0  0
    0.2386    3.5307    0.5217 H   0  0  0  0  0  0  0  0  0  0  0  0
  1  5  1  0
  1 65  1  0
  2  1  1  0
  2  6  1  0
  2  3  1  0
  2 85  1  6
  3  4  1  0
  3  8  1  0
  3 86  1  6
  4  5  1  0
  5  9  2  0
  6 66  1  0
  6  7  1  0
  7 10  2  0
  8 52  1  0
  8  7  1  0
 11 15  1  0
 12 11  1  0
 12 16  1  0
 12 13  1  0
 12 87  1  6
 13 14  1  0
 13 18  1  0
 13 88  1  6
 14 69  1  0
 15 19  2  0
 15 14  1  0
 16 17  1  0
 17 18  1  0
 17 20  2  0
 18 70  1  0
 21 25  1  0
 22 21  1  0
 22 23  1  0
 22 89  1  1
 23 24  1  0
 23 28  1  0
 23 90  1  1
 24 51  1  0
 25 24  1  0
 26 22  1  0
 26 27  1  0
 27 28  1  0
 28 53  1  0
 29 25  2  0
 30 27  2  0
 31 84  1  0
 32 31  1  0
 32 33  1  0
 32 91  1  1
 33 34  1  0
 33 92  1  1
 34 35  1  0
 35 31  1  0
 36 32  1  0
 36 83  1  0
 37 36  1  0
 38 37  1  0
 38 33  1  0
 39 35  2  0
 40 37  2  0
 41 45  1  0
 42 41  1  0
 42 43  1  0
 42 93  1  1
 43 44  1  0
 43 48  1  0
 43 94  1  1
 44 71  1  0
 45 44  1  0
 46 42  1  0
 46 47  1  0
 47 50  2  0
 47 48  1  0
 48 72  1  0
 49 45  2  0
 51 80  1  0
 51 95  1  1
 51 96  1  0
 52 16  1  0
 52 97  1  6
 52 98  1  0
 53 76  1  0
 53 99  1  6
 53100  1  0
 54  4  1  0
 54 11  1  0
 54101  1  1
 54102  1  0
 55 59  1  0
 56 55  1  0
 56 60  1  0
 56 57  1  0
 56103  1  6
 57 58  1  0
 57 62  1  0
 57104  1  6
 58 68  1  0
 59 63  2  0
 59 58  1  0
 60 61  1  0
 61 64  2  0
 61 62  1  0
 62 67  1  0
 65 55  1  0
 65105  1  6
 65106  1  0
 66 60  1  0
 66107  1  1
 66108  1  0
 67 26  1  0
 67109  1  1
 67110  1  0
 68 21  1  0
 68111  1  1
 68112  1  0
 69 41  1  0
 69113  1  1
 69114  1  0
 70 46  1  0
 70115  1  6
 70116  1  0
 71 34  1  0
 71117  1  6
 71118  1  0
 72 38  1  0
 72119  1  1
 72120  1  0
 73 74  1  0
 73 83  1  0
 74 78  1  0
 74 75  1  0
 74121  1  1
 75 80  1  0
 75122  1  1
 76 77  1  0
 76 75  1  0
 77 73  1  0
 78 84  1  0
 79 78  1  0
 80 79  1  0
 81 77  2  0
 82 79  2  0
 83123  1  1
 83124  1  0
 84125  1  6
 84126  1  0
127128  2  0
127134  1  0
128129  1  0
128135  1  0
129130  2  0
129136  1  0
130131  1  0
130137  1  0
131132  2  0
131138  1  0
132133  1  0
132139  1  0
133127  1  0
133140  1  0
M  CHG  1 131   1
M  END
