
     RDKit          3D

140161  0  0  1  0  0  0  0  0999 V2000
    1.4456   -0.5645   -5.0846 N   0  0  0  0  0  0  0  0  0  0  0  0
    1.2353    0.7518   -5.6189 C   0  0  1  0  0  0  0  0  0  0  0  0
   -0.3168    0.8655   -5.7376 C   0  0  1  0  0  0  0  0  0  0  0  0
   -0.7938   -0.4017   -5.2604 N   0  0  0  0  0  0  0  0  0  0  0  0
    0.2769   -1.2979   -5.3094 C   0  0  0  0  0  0  0  0  0  0  0  0
    1.5944    1.8226   -4.7320 N   0  0  0  0  0  0  0  0  0  0  0  0
    0.5243    2.7212   -4.7050 C   0  0  0  0  0  0  0  0  0  0  0  0
   -0.6461    1.9837   -4.8998 N   0  0  0  0  0  0  0  0  0  0  0  0
    0.2255   -2.4460   -5.7177 O   0  0  0  0  0  0  0  0  0  0  0  0
    0.6146    3.9370   -4.7504 O   0  0  0  0  0  0  0  0  0  0  0  0
   -2.9940   -0.3981   -4.4012 N   0  0  0  0  0  0  0  0  0  0  0  0
   -3.6621    0.8723   -4.4285 C   0  0  1  0  0  0  0  0  0  0  0  0
   -4.7220    0.7642   -3.2885 C   0  0  1  0  0  0  0  0  0  0  0  0
   -4.5220   -0.5539   -2.7542 N   0  0  0  0  0  0  0  0  0  0  0  0
   -3.8149   -1.2904   -3.7081 C   0  0  0  0  0  0  0  0  0  0  0  0
   -2.8456    1.9864   -4.0371 N   0  0  0  0  0  0  0  0  0  0  0  0
   -3.5653    2.7256   -3.0953 C   0  0  0  0  0  0  0  0  0  0  0  0
   -4.3782    1.8323   -2.3923 N   0  0  0  0  0  0  0  0  0  0  0  0
   -4.0500   -2.4419   -4.0354 O   0  0  0  0  0  0  0  0  0  0  0  0
   -3.6476    3.9426   -3.0589 O   0  0  0  0  0  0  0  0  0  0  0  0
    5.0938   -1.5560    0.2279 N   0  0  0  0  0  0  0  0  0  0  0  0
    5.7239   -0.4713    0.9262 C   0  0  2  0  0  0  0  0  0  0  0  0
    5.2565   -0.6531    2.4035 C   0  0  2  0  0  0  0  0  0  0  0  0
    4.4236   -1.8220    2.3619 N   0  0  0  0  0  0  0  0  0  0  0  0
    4.7166   -2.5066    1.1798 C   0  0  0  0  0  0  0  0  0  0  0  0
    5.2404    0.8319    0.5676 N   0  0  0  0  0  0  0  0  0  0  0  0
    4.9500    1.5161    1.7502 C   0  0  0  0  0  0  0  0  0  0  0  0
    4.5600    0.5675    2.6984 N   0  0  0  0  0  0  0  0  0  0  0  0
    4.8518   -3.7144    1.0715 O   0  0  0  0  0  0  0  0  0  0  0  0
    5.2153    2.6849    1.9800 O   0  0  0  0  0  0  0  0  0  0  0  0
   -1.6437   -1.8183    4.7165 N   0  0  0  0  0  0  0  0  0  0  0  0
   -2.2248   -0.6517    5.3192 C   0  0  2  0  0  0  0  0  0  0  0  0
   -3.5746   -0.4670    4.5585 C   0  0  2  0  0  0  0  0  0  0  0  0
   -3.5906   -1.5491    3.6151 N   0  0  0  0  0  0  0  0  0  0  0  0
   -2.6662   -2.5015    4.0518 C   0  0  0  0  0  0  0  0  0  0  0  0
   -1.5147    0.5702    5.0650 N   0  0  0  0  0  0  0  0  0  0  0  0
   -2.4487    1.5196    4.6439 C   0  0  0  0  0  0  0  0  0  0  0  0
   -3.4645    0.8380    3.9703 N   0  0  0  0  0  0  0  0  0  0  0  0
   -2.8419   -3.7089    4.0659 O   0  0  0  0  0  0  0  0  0  0  0  0
   -2.4911    2.6847    5.0040 O   0  0  0  0  0  0  0  0  0  0  0  0
   -5.2246   -0.8439   -0.5168 N   0  0  0  0  0  0  0  0  0  0  0  0
   -5.7969    0.3187    0.1023 C   0  0  1  0  0  0  0  0  0  0  0  0
   -5.5808    0.0777    1.6284 C   0  0  1  0  0  0  0  0  0  0  0  0
   -4.9091   -1.1897    1.6871 N   0  0  0  0  0  0  0  0  0  0  0  0
   -5.1154   -1.8329    0.4644 C   0  0  0  0  0  0  0  0  0  0  0  0
   -5.0929    1.5433   -0.1577 N   0  0  0  0  0  0  0  0  0  0  0  0
   -4.9049    2.1872    1.0679 C   0  0  0  0  0  0  0  0  0  0  0  0
   -4.7848    1.1972    2.0458 N   0  0  0  0  0  0  0  0  0  0  0  0
   -5.3887   -3.0133    0.3187 O   0  0  0  0  0  0  0  0  0  0  0  0
   -5.0633    3.3785    1.2775 O   0  0  0  0  0  0  0  0  0  0  0  0
    4.0359   -2.5213    3.5582 C   0  0  2  0  0  0  0  0  0  0  0  0
   -1.9353    2.6207   -4.9533 C   0  0  2  0  0  0  0  0  0  0  0  0
    4.2241    0.9459    4.0456 C   0  0  2  0  0  0  0  0  0  0  0  0
   -2.1477   -0.8366   -5.4788 C   0  0  2  0  0  0  0  0  0  0  0  0
    3.4790   -0.8573   -3.9152 N   0  0  0  0  0  0  0  0  0  0  0  0
    4.3223    0.3035   -3.8540 C   0  0  2  0  0  0  0  0  0  0  0  0
    5.1991    0.0655   -2.5855 C   0  0  2  0  0  0  0  0  0  0  0  0
    4.7447   -1.2001   -2.0827 N   0  0  0  0  0  0  0  0  0  0  0  0
    4.0676   -1.8454   -3.1208 C   0  0  0  0  0  0  0  0  0  0  0  0
    3.6321    1.5309   -3.5719 N   0  0  0  0  0  0  0  0  0  0  0  0
    4.3263    2.1760   -2.5455 C   0  0  0  0  0  0  0  0  0  0  0  0
    4.8986    1.1875   -1.7420 N   0  0  0  0  0  0  0  0  0  0  0  0
    4.1764   -3.0244   -3.4160 O   0  0  0  0  0  0  0  0  0  0  0  0
    4.5864    3.3671   -2.5020 O   0  0  0  0  0  0  0  0  0  0  0  0
    2.7391   -1.1946   -5.1026 C   0  0  2  0  0  0  0  0  0  0  0  0
    2.9540    2.2745   -4.6003 C   0  0  2  0  0  0  0  0  0  0  0  0
    5.7117    1.5223   -0.6035 C   0  0  1  0  0  0  0  0  0  0  0  0
    5.4924   -1.9404   -1.1006 C   0  0  1  0  0  0  0  0  0  0  0  0
   -5.4888   -1.1786   -1.8913 C   0  0  2  0  0  0  0  0  0  0  0  0
   -5.2862    2.2885   -1.3734 C   0  0  2  0  0  0  0  0  0  0  0  0
   -4.7886   -1.9305    2.9152 C   0  0  1  0  0  0  0  0  0  0  0  0
   -4.6065    1.5289    3.4341 C   0  0  1  0  0  0  0  0  0  0  0  0
    0.8375    0.4133    5.2253 N   0  0  0  0  0  0  0  0  0  0  0  0
    1.3430   -0.8851    5.5720 C   0  0  2  0  0  0  0  0  0  0  0  0
    2.7989   -0.8847    5.0100 C   0  0  2  0  0  0  0  0  0  0  0  0
    2.9384    0.4125    4.4106 N   0  0  0  0  0  0  0  0  0  0  0  0
    1.9353    1.2292    4.9388 C   0  0  0  0  0  0  0  0  0  0  0  0
    0.7086   -1.9775    4.8887 N   0  0  0  0  0  0  0  0  0  0  0  0
    1.7208   -2.7986    4.3846 C   0  0  0  0  0  0  0  0  0  0  0  0
    2.8100   -1.9787    4.0800 N   0  0  0  0  0  0  0  0  0  0  0  0
    2.0776    2.3847    5.3043 O   0  0  0  0  0  0  0  0  0  0  0  0
    1.7406   -4.0172    4.4364 O   0  0  0  0  0  0  0  0  0  0  0  0
   -0.3548    0.9478    5.8282 C   0  0  2  0  0  0  0  0  0  0  0  0
   -0.5481   -2.5228    5.3289 C   0  0  2  0  0  0  0  0  0  0  0  0
    1.7225    0.8656   -6.5948 H   0  0  0  0  0  0  0  0  0  0  0  0
   -0.6293    1.0413   -6.7744 H   0  0  0  0  0  0  0  0  0  0  0  0
   -4.1352    1.0503   -5.4021 H   0  0  0  0  0  0  0  0  0  0  0  0
   -5.7414    0.8842   -3.6749 H   0  0  0  0  0  0  0  0  0  0  0  0
    6.8159   -0.5262    0.8404 H   0  0  0  0  0  0  0  0  0  0  0  0
    6.1075   -0.7964    3.0802 H   0  0  0  0  0  0  0  0  0  0  0  0
   -2.3863   -0.7995    6.3939 H   0  0  0  0  0  0  0  0  0  0  0  0
   -4.4316   -0.5229    5.2406 H   0  0  0  0  0  0  0  0  0  0  0  0
   -6.8616    0.4146   -0.1430 H   0  0  0  0  0  0  0  0  0  0  0  0
   -6.5344    0.0460    2.1695 H   0  0  0  0  0  0  0  0  0  0  0  0
    4.8272   -2.4261    4.3105 H   0  0  0  0  0  0  0  0  0  0  0  0
    3.9097   -3.5872    3.3433 H   0  0  0  0  0  0  0  0  0  0  0  0
   -2.3346    2.5521   -5.9716 H   0  0  0  0  0  0  0  0  0  0  0  0
   -1.8372    3.6826   -4.7070 H   0  0  0  0  0  0  0  0  0  0  0  0
    4.2149    2.0367    4.1355 H   0  0  0  0  0  0  0  0  0  0  0  0
    4.9868    0.5634    4.7333 H   0  0  0  0  0  0  0  0  0  0  0  0
   -2.1812   -1.9276   -5.5596 H   0  0  0  0  0  0  0  0  0  0  0  0
   -2.5164   -0.4226   -6.4244 H   0  0  0  0  0  0  0  0  0  0  0  0
    4.9382    0.3945   -4.7568 H   0  0  0  0  0  0  0  0  0  0  0  0
    6.2669    0.0324   -2.8352 H   0  0  0  0  0  0  0  0  0  0  0  0
    3.2951   -0.8636   -5.9871 H   0  0  0  0  0  0  0  0  0  0  0  0
    2.6225   -2.2809   -5.1718 H   0  0  0  0  0  0  0  0  0  0  0  0
    2.9701    3.3420   -4.3595 H   0  0  0  0  0  0  0  0  0  0  0  0
    3.4781    2.1418   -5.5535 H   0  0  0  0  0  0  0  0  0  0  0  0
    5.6903    2.6035   -0.4343 H   0  0  0  0  0  0  0  0  0  0  0  0
    6.7518    1.2390   -0.8012 H   0  0  0  0  0  0  0  0  0  0  0  0
    6.5625   -1.7437   -1.2318 H   0  0  0  0  0  0  0  0  0  0  0  0
    5.3336   -3.0139   -1.2419 H   0  0  0  0  0  0  0  0  0  0  0  0
   -5.4590   -2.2649   -2.0228 H   0  0  0  0  0  0  0  0  0  0  0  0
   -6.4945   -0.8394   -2.1636 H   0  0  0  0  0  0  0  0  0  0  0  0
   -6.3183    2.1610   -1.7192 H   0  0  0  0  0  0  0  0  0  0  0  0
   -5.1297    3.3553   -1.1850 H   0  0  0  0  0  0  0  0  0  0  0  0
   -4.7711   -3.0041    2.7031 H   0  0  0  0  0  0  0  0  0  0  0  0
   -5.6607   -1.7322    3.5487 H   0  0  0  0  0  0  0  0  0  0  0  0
   -5.5035    1.2440    3.9958 H   0  0  0  0  0  0  0  0  0  0  0  0
   -4.4761    2.6100    3.5459 H   0  0  0  0  0  0  0  0  0  0  0  0
    1.3322   -1.0378    6.6583 H   0  0  0  0  0  0  0  0  0  0  0  0
    3.5375   -1.0345    5.8071 H   0  0  0  0  0  0  0  0  0  0  0  0
   -0.4506    0.5657    6.8509 H   0  0  0  0  0  0  0  0  0  0  0  0
   -0.2864    2.0384    5.8874 H   0  0  0  0  0  0  0  0  0  0  0  0
   -0.6011   -3.5861    5.0756 H   0  0  0  0  0  0  0  0  0  0  0  0
   -0.6219   -2.4373    6.4191 H   0  0  0  0  0  0  0  0  0  0  0  0
   -0.0571    1.3064   -0.8184 C   0  0  0  0  0  0  0  0  0  0  0  0
   -0.0554    0.1736   -1.5317 C   0  0  0  0  0  0  0  0  0  0  0  0
   -0.0120   -1.0898   -1.0917 C   0  0  0  0  0  0  0  0  0  0  0  0
    0.0405   -1.5326    0.1705 C   0  0  0  0  0  0  0  0  0  0  0  0
    0.0625   -0.8214    1.3043 C   0  0  0  0  0  3  0  0  0  0  0  0
    0.0374    0.5084    1.4559 C   0  0  0  0  0  0  0  0  0  0  0  0
   -0.0158    1.4553    0.5113 C   0  0  0  0  0  0  0  0  0  0  0  0
   -0.0975    2.2307   -1.3975 H   0  0  0  0  0  0  0  0  0  0  0  0
   -0.0946    0.2965   -2.6157 H   0  0  0  0  0  0  0  0  0  0  0  0
   -0.0205   -1.8609   -1.8642 H   0  0  0  0  0  0  0  0  0  0  0  0
    0.0691   -2.6171    0.2911 H   0  0  0  0  0  0  0  0  0  0  0  0
    0.1066   -1.4025    2.2271 H   0  0  0  0  0  0  0  0  0  0  0  0
    0.0639    0.8681    2.4861 H   0  0  0  0  0  0  0  0  0  0  0  0
   -0.0270    2.4850    0.8730 H   0  0  0  0  0  0  0  0  0  0  0  0
  1  5  1  0
  1 65  1  0
  2  1  1  0
  2  6  1  0
  2  3  1  0
  2 85  1  6
  3  4  1  0
  3  8  1  0
  3 86  1  6
  4  5  1  0
  5  9  2  0
  6 66  1  0
  6  7  1  0
  7 10  2  0
  8 52  1  0
  8  7  1  0
 11 15  1  0
 12 11  1  0
 12 16  1  0
 12 13  1  0
 12 87  1  6
 13 14  1  0
 13 18  1  0
 13 88  1  6
 14 69  1  0
 15 19  2  0
 15 14  1  0
 16 17  1  0
 17 18  1  0
 17 20  2  0
 18 70  1  0
 21 25  1  0
 22 21  1  0
 22 23  1  0
 22 89  1  1
 23 24  1  0
 23 28  1  0
 23 90  1  1
 24 51  1  0
 25 24  1  0
 26 22  1  0
 26 27  1  0
 27 28  1  0
 28 53  1  0
 29 25  2  0
 30 27  2  0
 31 84  1  0
 32 31  1  0
 32 33  1  0
 32 91  1  1
 33 34  1  0
 33 92  1  1
 34 35  1  0
 35 31  1  0
 36 32  1  0
 36 83  1  0
 37 36  1  0
 38 37  1  0
 38 33  1  0
 39 35  2  0
 40 37  2  0
 41 45  1  0
 42 41  1  0
 42 43  1  0
 42 93  1  1
 43 44  1  0
 43 48  1  0
 43 94  1  1
 44 71  1  0
 45 44  1  0
 46 42  1  0
 46 47  1  0
 47 50  2  0
 47 48  1  0
 48 72  1  0
 49 45  2  0
 51 80  1  0
 51 95  1  1
 51 96  1  0
 52 16  1  0
 52 97  1  6
 52 98  1  0
 53 76  1  0
 53 99  1  6
 53100  1  0
 54  4  1  0
 54 11  1  0
 54101  1  6
 54102  1  0
 55 59  1  0
 56 55  1  0
 56 60  1  0
 56 57  1  0
 56103  1  6
 57 58  1  0
 57 62  1  0
 57104  1  6
 58 68  1  0
 59 63  2  0
 59 58  1  0
 60 61  1  0
 61 64  2  0
 61 62  1  0
 62 67  1  0
 65 55  1  0
 65105  1  6
 65106  1  0
 66 60  1  0
 66107  1  1
 66108  1  0
 67 26  1  0
 67109  1  1
 67110  1  0
 68 21  1  0
 68111  1  1
 68112  1  0
 69 41  1  0
 69113  1  1
 69114  1  0
 70 46  1  0
 70115  1  6
 70116  1  0
 71 34  1  0
 71117  1  6
 71118  1  0
 72 38  1  0
 72119  1  1
 72120  1  0
 73 74  1  0
 73 83  1  0
 74 78  1  0
 74 75  1  0
 74121  1  1
 75 80  1  0
 75122  1  1
 76 77  1  0
 76 75  1  0
 77 73  1  0
 78 84  1  0
 79 78  1  0
 80 79  1  0
 81 77  2  0
 82 79  2  0
 83123  1  1
 83124  1  0
 84125  1  1
 84126  1  0
127128  4  0
128129  4  0
129130  4  0
130131  4  0
131132  4  0
132133  4  0
133127  4  0
127134  1  0
128135  1  0
129136  1  0
130137  1  0
131138  1  0
132139  1  0
133140  1  0
M  CHG  1 131   1
M  END
